134
 Final energy is   -3006.32627467162     
N        -0.0893700524    0.0338530826    0.2091820133
C        -0.2062893741   -0.0319856827    1.6079394506
C         0.9149286763    0.1430368777    2.4177057115
H         1.8804859779    0.3234484055    1.9631851341
C         0.7962980246    0.0849003579    3.7961829664
H         1.6770374360    0.2229745593    4.4097681470
C        -0.4319023218   -0.1669095922    4.3896984429
H        -0.5194696078   -0.2212327661    5.4664143040
C        -1.5473054073   -0.3481700715    3.5849010359
H        -2.5141935671   -0.5378982920    4.0330336583
C        -1.4426660632   -0.2715418557    2.2067082976
H        -2.3211604869   -0.4028469561    1.5881531385
C         0.7156402983    1.0272511043   -0.3756722227
C         1.5603625425    0.7139372078   -1.4394396831
H         1.6007319902   -0.3026848589   -1.8090818456
C         2.3371123883    1.6981724512   -2.0264096952
H         2.9847432378    1.4399066282   -2.8542770266
C         2.3014171351    3.0015753003   -1.5522487280
H         2.9143753306    3.7665869298   -2.0095342532
C         1.4698283943    3.3125095746   -0.4865279544
H         1.4255420779    4.3265280031   -0.1109836382
C         0.6743060758    2.3384297786    0.0936020387
H         0.0154899260    2.5925218942    0.9140036272
C        -0.8088229290   -0.8558232903   -0.6083085470
C        -0.9578363120   -2.1891475060   -0.2468854040
H        -0.4979825629   -2.5519375614    0.6653396727
C        -1.6932475031   -3.0663148800   -1.0354458392
C        -1.3833328624   -0.4160777975   -1.7989204632
H        -1.2701986884    0.6187549830   -2.0986098780
C        -2.0973022021   -1.2859675167   -2.6089074702
C        -2.2759380946   -2.6242583152   -2.2278152322
C        -2.6964132397   -0.7838339572   -3.8943028415
H        -2.3936960057    0.2410344330   -4.1062650874
H        -3.7876975512   -0.8040686141   -3.8643396932
H        -2.3902684285   -1.3970403576   -4.7448202350
C        -1.8876876054   -4.4826790711   -0.5577734051
H        -1.0009319816   -4.8098172708   -0.0089622040
H        -1.9779885799   -5.1627949395   -1.4092637239
C        -3.1157297775   -4.6274658204    0.3387572885
H        -4.0280024291   -4.3513771220   -0.1904722718
H        -3.2306059658   -5.6561297465    0.6820446668
H        -3.0361236290   -3.9877393954    1.2184796507
B        -3.1599493593   -3.5695697334   -3.1197249991
C        -4.7141528275   -3.4816667134   -3.0101757990
C        -5.3136463319   -2.6088201868   -2.0944331292
H        -4.6902889519   -1.9953323164   -1.4532358683
C        -6.6929302958   -2.5318273965   -2.0084800872
C        -7.4952460982   -3.3400351058   -2.8433362088
C        -6.9167839067   -4.2067191407   -3.7477060265
H        -7.5359858645   -4.8247882066   -4.3883028388
C        -5.5275472441   -4.2878027149   -3.8419836102
C        -7.5897736038   -1.7254866202   -1.1726407289
C        -7.4327953487   -0.7764578125   -0.1978853987
H        -6.4541474742   -0.4513804361    0.1321754728
C        -8.9004712710   -2.0853646827   -1.5417690269
C       -10.0561994321   -1.5464680285   -0.9868331202
C        -8.8993231330   -3.0626402502   -2.5522076075
C       -10.0989709246   -3.5231577750   -3.0287007578
H       -10.1558920673   -4.2750234375   -3.8063624982
C        -8.5897353340   -0.2078032029    0.3882339106
H        -8.4611980773    0.5420651087    1.1576338041
C        -9.8634470913   -0.5695606008    0.0180575080
H       -10.7178675920   -0.1055423191    0.4953614696
C       -11.2840909751   -2.0372583129   -1.4938284563
H       -12.2212522900   -1.6590408188   -1.1040146520
C       -11.2910215219   -2.9937234250   -2.4817149564
H       -12.2392752451   -3.3566304467   -2.8566391055
C        -2.5150170436   -4.5741533604   -4.1234023073
C        -1.1229206443   -4.6811177082   -4.2284543303
H        -0.4919195523   -4.0492754584   -3.6130553955
C        -0.5593696137   -5.5918319122   -5.1074003020
C        -1.3949778673   -6.4054268446   -5.9028942066
C        -2.7689178940   -6.2999673958   -5.8187507245
H        -3.4076653404   -6.9226153260   -6.4359644702
C        -3.3436628037   -5.3886539711   -4.9341469684
C         0.8306506402   -5.9378744262   -5.4258541250
C         2.0650365108   -5.5220070899   -5.0047930485
H         2.1842013019   -4.7500924213   -4.2550690245
C         0.7704138496   -6.9495901149   -6.4044775233
C         1.8753663308   -7.5632575016   -6.9816310490
C        -0.5594383273   -7.2685883253   -6.7289626605
C        -0.8017788508   -8.2364921406   -7.6673441454
H        -1.8078098937   -8.5191371379   -7.9527385006
C         3.2124809335   -6.1270508406   -5.5722958421
H         4.1866808469   -5.7965869324   -5.2369068055
C         3.1374882349   -7.1133960732   -6.5274412345
H         4.0454926181   -7.5447576167   -6.9302852533
C         1.6027872309   -8.5608416409   -7.9495122849
H         2.4191036508   -9.0782189302   -8.4383422490
C         0.3038981086   -8.8770087690   -8.2726068951
H         0.1174495977   -9.6421861056   -9.0149114743
B        -4.8897820688   -5.2710021507   -4.8586153786
C        -5.8062244754   -6.1435779737   -5.7926681256
C        -6.2324156606   -5.6642274259   -7.0336796777
C        -7.0432189316   -6.4466855625   -7.8473776433
H        -7.3558629722   -6.0662758772   -8.8137672108
C        -7.4614561383   -7.7052367228   -7.4392873202
C        -7.0475642884   -8.1811407802   -6.1979202549
H        -7.3773695700   -9.1578775930   -5.8635754297
C        -6.2233242041   -7.4199534420   -5.3839827450
N        -8.2984161423   -8.4825359788   -8.2623835186
C        -9.3583292843   -7.8733562712   -8.9532055712
C        -9.6259769928   -8.2095971720  -10.2795286858
H        -9.0078919559   -8.9423726030  -10.7822671101
C       -10.6784007274   -7.6119899100  -10.9528661360
H       -10.8724016712   -7.8851981694  -11.9820910937
C       -11.4668205621   -6.6579743357  -10.3267996389
H       -12.2822813966   -6.1867526150  -10.8588563055
C       -11.1961528091   -6.3153578563   -9.0100148731
H       -11.8067362223   -5.5772001360   -8.5062355834
C       -10.1592646165   -6.9227696637   -8.3222459371
H        -9.9631061948   -6.6596867691   -7.2910291161
C        -8.0677322065   -9.8590847069   -8.4101418801
C        -9.1364099680  -10.7553774589   -8.4373526067
H       -10.1488715349  -10.3863165720   -8.3354745885
C        -8.9081608238  -12.1116383321   -8.5966424172
H        -9.7500935839  -12.7916315843   -8.6166084502
C        -7.6157017578  -12.6025842476   -8.7103599272
H        -7.4409326786  -13.6637315320   -8.8265041547
C        -6.5507776756  -11.7146509867   -8.6725021841
H        -5.5366406153  -12.0812247921   -8.7655431144
C        -6.7702869403  -10.3541155837   -8.5345019908
H        -5.9330777905   -9.6684666638   -8.5226028349
C        -5.7990978768   -7.9553645996   -4.0450713331
H        -6.1841049910   -8.9599201780   -3.8729844612
H        -4.7113585738   -8.0019106818   -3.9586319876
H        -6.1576291538   -7.3223744621   -3.2302819867
C        -5.7801846272   -4.3230846414   -7.5526116339
H        -6.6315902237   -3.7950363929   -7.9904841563
H        -5.4333328035   -3.6908173013   -6.7303388227
C        -4.6726345226   -4.4500624653   -8.5957428198
H        -3.7918075201   -4.9371888495   -8.1771740638
H        -5.0041742724   -5.0411052454   -9.4501561090
H        -4.3675371538   -3.4709379058   -8.9660256568
