  134
FINAL HEAT OF FORMATION = -3006.241590
 C    -4.821536    -0.225372     4.441811
 C    -5.435036    -0.811815     3.343431
 C    -4.701326    -1.076025     2.177976
 C    -3.344150    -0.731572     2.146852
 C    -2.749857    -0.118857     3.244347
 C    -3.480209     0.130603     4.396479
 N    -2.863288     0.725121     5.522169
 C    -6.888314    -1.192677     3.416260
 C    -2.516811    -0.980499     0.911825
 C    -1.694163     0.157809     6.040281
 C    -0.699591     0.957849     6.603560
 C    -4.162753     2.763344     5.393841
 C    -3.499887     1.799252     6.154572
 C    -4.827634     3.807336     6.012383
 C    -4.831212     3.924517     7.395003
 C    -4.165372     2.972554     8.152843
 C    -3.513045     1.913101     7.544718
 C    -1.496347    -1.222826     5.984618
 C    -0.328390    -1.782650     6.472301
 C     0.655295    -0.986770     7.040452
 C     0.456247     0.384761     7.106016
 C    -6.821168    -1.661582    -1.189542
 C    -6.221209    -0.993698    -0.076820
 B    -5.406791    -1.790893     0.956177
 C    -5.283361    -3.317671     0.798763
 C    -5.875664    -3.982200    -0.319166
 B    -6.660873    -3.171188    -1.339778
 C    -4.582954    -4.078695     1.752285
 C    -4.456119    -5.441436     1.616112
 C    -5.033592    -6.098193     0.490302
 C    -5.723227    -5.377857    -0.450391
 C    -7.567988    -0.911425    -2.118831
 C    -7.726971     0.441348    -1.962444
 C    -7.134727     1.113123    -0.854294
 C    -6.398192     0.395596     0.061382
 C    -3.095217    -6.460035     3.613206
 C    -2.608678    -7.690882     4.109356
 C    -2.816395    -8.887345     3.463977
 C    -3.543932    -8.917165     2.250425
 C    -4.010207    -7.690187     1.784965
 C    -3.804680    -6.457327     2.438243
 C    -3.851491   -10.047563     1.454855
 C    -4.572722    -9.897292     0.293451
 C    -5.032857    -8.639474    -0.155919
 C    -4.749805    -7.526651     0.596995
 C    -7.758929     4.889622    -0.662298
 C    -7.224404     3.657237    -0.221562
 C    -7.480756     2.528667    -0.958296
 C    -8.269619     2.661932    -2.120545
 C    -8.811989     3.859037    -2.577133
 C    -8.527967     5.005513    -1.796911
 C    -8.448507     1.421139    -2.763549
 C    -9.202431     1.374868    -3.909403
 C    -9.764336     2.575809    -4.395291
 C    -9.583624     3.783978    -3.762534
 C    -9.213636    -4.910921    -3.688855
 C    -8.657108    -4.339512    -2.571218
 C    -7.310080    -3.890751    -2.590009
 C    -6.549048    -4.065668    -3.781004
 C    -7.114040    -4.635538    -4.892656
 C    -8.459359    -5.061753    -4.870905
 N    -9.031035    -5.598173    -5.991564
 C    -9.500783    -4.199321    -1.336392
 C    -5.115960    -3.637139    -3.804118
 C    -8.578726    -5.248762    -7.281424
 C    -8.359786    -3.911511    -7.606281
 C   -11.206925    -6.359711    -6.737698
 C   -10.100912    -6.512656    -5.904205
 C   -12.242471    -7.273327    -6.670966
 C   -12.181286    -8.338603    -5.782770
 C   -11.075081    -8.491029    -4.959287
 C   -10.030548    -7.586007    -5.018488
 C    -8.391383    -6.245197    -8.236663
 C    -7.968157    -5.900982    -9.506977
 C    -7.735484    -4.571173    -9.831834
 C    -7.933517    -3.580689    -8.880391
 H    -5.391902    -0.043658     5.345563
 H    -1.700451     0.151912     3.208797
 H    -7.030121    -2.254276     3.204136
 H    -7.481942    -0.644430     2.682135
 H    -7.307616    -0.989650     4.401389
 H    -2.840293    -1.906907     0.431143
 H    -1.473246    -1.135158     1.198067
 C    -2.598600     0.165663    -0.093524
 H    -0.833730     2.031106     6.642334
 H    -4.162548     2.683309     4.314486
 H    -5.340312     4.541577     5.404261
 H    -5.348355     4.744439     7.874896
 H    -4.167836     3.040996     9.233169
 H    -3.018266     1.163852     8.149167
 H    -2.260287    -1.856285     5.552606
 H    -0.193303    -2.855333     6.416016
 H     1.564467    -1.428845     7.425214
 H     1.216948     1.022136     7.538249
 H    -4.141941    -3.573965     2.604630
 H    -6.157933    -5.895624    -1.301171
 H    -8.031554    -1.406101    -2.967148
 H    -5.942556     0.898225     0.908322
 H    -2.902484    -5.547860     4.163294
 H    -2.049920    -7.688243     5.036461
 H    -2.423563    -9.805578     3.883349
 H    -3.519156   -11.032499     1.759913
 H    -4.796837   -10.773932    -0.301630
 H    -5.594843    -8.577014    -1.080003
 H    -7.552937     5.777246    -0.078024
 H    -6.628476     3.623233     0.681602
 H    -8.915770     5.972790    -2.091696
 H    -9.375807     0.447232    -4.441619
 H   -10.360211     2.541915    -5.298845
 H   -10.035113     4.679233    -4.172253
 H   -10.260179    -5.189786    -3.684179
 H    -6.517535    -4.795582    -5.781396
 H   -10.531954    -3.981248    -1.625332
 H    -9.156503    -3.350857    -0.745889
 C    -9.465217    -5.470271    -0.488064
 H    -4.663882    -3.796028    -4.782066
 H    -4.534870    -4.185186    -3.062192
 H    -5.027623    -2.580581    -3.549465
 H    -8.539320    -3.138261    -6.870902
 H   -11.259462    -5.524529    -7.423741
 H   -13.105624    -7.148678    -7.310279
 H   -12.993389    -9.051077    -5.735638
 H   -11.016995    -9.327908    -4.277203
 H    -9.155180    -7.719953    -4.396526
 H    -8.565205    -7.282002    -7.980289
 H    -7.811179    -6.675604   -10.245012
 H    -7.405100    -4.307318   -10.827080
 H    -7.768011    -2.542740    -9.133596
 H    -9.825802    -6.333521    -1.049944
 H   -10.095655    -5.359211     0.393336
 H    -8.454599    -5.686883    -0.145657
 H    -1.960486    -0.025428    -0.957555
 H    -2.278851     1.105881     0.357360
 H    -3.617213     0.298823    -0.456109
