134
 Final energy is   -3006.28239959102     
N         0.2035776565   -0.0890285297    0.0089765599
C         0.1707143738   -0.0218742976    1.3771920345
C         1.3686252085    0.0315946111    2.1150533719
H         2.3191341315   -0.0124402897    1.5975501850
C         1.3347064225    0.0494519570    3.4905217515
C         1.2543404799    0.5027028905   -0.7204072004
C         1.6823111575    1.7884961153   -0.3920673443
H         1.2003274409    2.3356972699    0.4076750424
C         2.7060433407    2.3683323721   -1.1197217561
H         3.0335704766    3.3692805197   -0.8744585255
C         3.2973857880    1.6764208428   -2.1689742486
H         4.0968938778    2.1342163369   -2.7356863053
C         2.8598436685    0.3982710963   -2.4959156007
H         3.3234392313   -0.1437885790   -3.3089315070
C         1.8364969864   -0.1935789029   -1.7790297016
H         1.5051414928   -1.1946971033   -2.0227652781
C        -0.8162415893   -0.7574429277   -0.7005855247
C        -1.3723311638   -0.1678306774   -1.8348730244
H        -1.0401046787    0.8080266440   -2.1643991570
C        -2.3764050260   -0.8296630828   -2.5183365802
H        -2.8208334215   -0.3686014449   -3.3899398927
C        -2.8215755987   -2.0724286976   -2.0836509536
H        -3.6074364740   -2.5838587338   -2.6231720495
C        -2.2555625277   -2.6596013303   -0.9596905750
H        -2.5889384857   -3.6331920815   -0.6270155978
C        -1.2510338485   -2.0091404186   -0.2653236953
H        -0.7929292831   -2.4766729389    0.5967972489
C        -1.0681071979   -0.0248437295    2.0502673406
H        -1.9882935295   -0.0188861505    1.4796297370
C        -1.1086706247    0.0118523601    3.4221802121
C         0.0951946882    0.0300731305    4.1742310327
C        -2.4295970415    0.0204391250    4.1301199291
H        -3.2624021805    0.0195871574    3.4278519291
H        -2.5262892334    0.8947117030    4.7749644042
H        -2.5276594339   -0.8547274173    4.7749705708
C         2.6318489393    0.0942450404    4.2482075377
H         2.5234251326   -0.4227598949    5.2032823394
H         3.3998576247   -0.4426119269    3.6864323721
C         3.0887323712    1.5313717931    4.4901257303
H         2.3623213564    2.0784803094    5.0904986519
H         4.0395641448    1.5479018051    5.0225277629
H         3.2201684205    2.0648892217    3.5474935317
B         0.0261986482   -0.0776225655    5.7492523634
C        -0.1023724767    1.1627366961    6.6276446408
C        -0.1966159266    2.4493197018    6.0562255713
H        -0.1655057996    2.5599931279    4.9758272419
C        -0.3367597174    3.5585435725    6.8498005929
C        -0.3795790347    3.4258988413    8.2695596985
C        -0.2822643113    2.1793974416    8.8451439141
H        -0.3186289364    2.0763679221    9.9247689055
C        -0.1529279339    1.0216738558    8.0488162423
C        -0.4823875112    4.9707455595    6.5173323009
C        -0.5300523643    5.6909619127    5.3500955770
H        -0.4401820785    5.2151162263    4.3808369053
C        -0.6121089740    5.6538174711    7.7422953582
C        -0.7938919146    7.0287847397    7.8501123588
C        -0.5554228739    4.7613260841    8.8346315924
C        -0.6840128565    5.2781876712   10.0991066290
H        -0.6528905626    4.6478766629   10.9792626695
C        -0.7078408586    7.0907778943    5.4303750963
H        -0.7469211951    7.6610954233    4.5107304039
C        -0.8372002228    7.7515876655    6.6316886316
H        -0.9756434087    8.8258246698    6.6437457660
C        -0.8669554329    6.6739905012   10.2412200225
H        -0.9690881543    7.0793968979   11.2398314782
C        -0.9226279872    7.5339404462    9.1670827387
H        -1.0680522143    8.5947855301    9.3298414259
C         0.0449407762   -1.4735544976    6.3716167033
C         0.0943638956   -2.6260881193    5.5606497945
H         0.1307408858   -2.5280569977    4.4798985285
C         0.0887992028   -3.8751427377    6.1230345172
C         0.0462324236   -4.0326281021    7.5413894468
C         0.0040259991   -2.9196338076    8.3476995713
H        -0.0315253864   -3.0316907116    9.4268021411
C        -0.0064888473   -1.6226734468    7.7908037713
C         0.1124709399   -5.2029277061    5.5157584922
C         0.1478834645   -5.6879630982    4.2306962474
H         0.1705242875   -5.0285247442    3.3714362775
C         0.0833655433   -6.1239239346    6.5809537103
C         0.0876702142   -7.5084890893    6.4131459807
C         0.0441234137   -5.4683084576    7.8299410977
C         0.0083925325   -6.2460399289    8.9621325727
H        -0.0240029892   -5.8110130621    9.9531677132
C         0.1537280778   -7.0883897072    4.0321224438
H         0.1813083331   -7.4676799951    3.0181321033
C         0.1249600242   -7.9824294625    5.0785659065
H         0.1299211222   -9.0479446024    4.8818210415
C         0.0131185491   -7.6547273685    8.8225923053
H        -0.0154468238   -8.2598898732    9.7199821853
C         0.0513509840   -8.2825473919    7.5983055992
H         0.0522834634   -9.3645133262    7.5414038154
B        -0.0934887862   -0.3798426152    8.6902928405
C        -0.1160381290   -0.5207228112   10.2643207726
C        -1.3145789419   -0.4666097127   10.9868312768
C        -1.2973586323   -0.5160158376   12.3769926403
H        -2.2290917210   -0.4668642490   12.9311272848
C        -0.0982733703   -0.6037947282   13.0665794182
C         1.0943659148   -0.6797371023   12.3576289430
H         2.0328349114   -0.7513452549   12.8961073603
C         1.0912323165   -0.6494737148   10.9688903993
N        -0.0906870041   -0.5998884721   14.4820137521
C        -0.7053586928    0.4609369206   15.1560632472
C        -1.3635143735    0.2626998342   16.3721009068
H        -1.4010319651   -0.7255515670   16.8123645077
C        -1.9805805740    1.3224913039   17.0167494680
H        -2.4861370411    1.1441430849   17.9574227809
C        -1.9764119301    2.5937739011   16.4591622694
H        -2.4683877672    3.4162743846   16.9610289559
C        -1.3344287976    2.7909064680   15.2442457798
H        -1.3179493904    3.7745380036   14.7919658700
C        -0.6979542041    1.7429098964   14.6003355298
H        -0.1963785921    1.9193428687   13.6575659289
C         0.5392300566   -1.6534019248   15.1541772901
C         1.2654090797   -1.4335730523   16.3261735417
H         1.3464241369   -0.4332779657   16.7317494447
C         1.8922784779   -2.4881646076   16.9700270871
H         2.4513554935   -2.2952850195   17.8768890403
C         1.8291521548   -3.7746653154   16.4521044535
H         2.3281651999   -4.5935551281   16.9530670168
C         1.1198070376   -3.9935052254   15.2790317195
H         1.0573998726   -4.9899926286   14.8602294381
C         0.4732309377   -2.9496775766   14.6377870782
H        -0.0839280288   -3.1402901484   13.7293338666
C         2.3922365634   -0.7317638868   10.2190769718
H         3.2477062754   -0.7348162864   10.8946102169
H         2.4420323031   -1.6398788520    9.6148270376
H         2.5115242483    0.1075582109    9.5308520124
C        -2.6458056502   -0.4103510244   10.2802624634
H        -2.5506103923    0.1386329949    9.3405166464
H        -3.3616466717    0.1473072710   10.8900344996
C        -3.2080124435   -1.8012635622    9.9922628299
H        -2.5409335175   -2.3663459153    9.3410869460
H        -3.3388929881   -2.3715573447   10.9130973493
H        -4.1783079564   -1.7355270848    9.4977042005
