134
 Final energy is   -3006.34228365241     
N         0.8485820582   -0.0662490280    0.1040991688
C         0.5214634192   -0.0500281938    1.4750654969
C         1.5186588205   -0.0532151061    2.4408399929
H         2.5595830925   -0.0682945445    2.1363785237
C         1.1937091874   -0.0488232383    3.7919011400
C         1.8303681609    0.8053607943   -0.3904576186
C         1.9271352749    2.1094464387    0.0949501802
H         1.2345953209    2.4527744173    0.8526081595
C         2.9038109753    2.9642916594   -0.3885544983
H         2.9643932145    3.9726898999    0.0001865649
C         3.7862091251    2.5444109361   -1.3742236450
H         4.5428518648    3.2170564396   -1.7553787897
C         3.6857175148    1.2497323526   -1.8643910437
H         4.3711689319    0.9034711976   -2.6273798069
C         2.7252700401    0.3811132433   -1.3732625601
H         2.6693513541   -0.6315619003   -1.7521532814
C         0.1530917854   -0.9253194849   -0.7614696212
C        -0.2577868067   -0.4919008879   -2.0223861602
H        -0.0413608093    0.5191378352   -2.3433493815
C        -0.9456882061   -1.3485200317   -2.8669775954
H        -1.2555765352   -0.9940043004   -3.8417792617
C        -1.2560561101   -2.6403569341   -2.4666855365
H        -1.8017178404   -3.3027242479   -3.1254811669
C        -0.8575877479   -3.0704020183   -1.2088266191
H        -1.0855804808   -4.0772469419   -0.8826768150
C        -0.1509920335   -2.2284552140   -0.3657933435
H         0.1659093095   -2.5817223182    0.6072372738
C        -0.8121038500   -0.0401625959    1.8719945103
H        -1.5930553642   -0.0298316420    1.1204079811
C        -1.1520121666   -0.0577794788    3.2164073048
C        -0.1460539867   -0.0628528182    4.1918951632
C        -2.5999810340   -0.0741333784    3.6227935832
H        -3.2605505147   -0.0317787203    2.7572652313
H        -2.8485241901    0.7717764726    4.2673961390
H        -2.8502405217   -0.9810178690    4.1785650112
C         2.3058947983   -0.0024421001    4.8068463052
H         1.9845485334   -0.4504445657    5.7526821791
H         3.1436846209   -0.6135178223    4.4618028970
C         2.7887778457    1.4240867385    5.0581918653
H         1.9834897778    2.0488282326    5.4450471433
H         3.6023087109    1.4405498480    5.7842956408
H         3.1520774130    1.8814435060    4.1369346713
B        -0.4933313235   -0.1684005524    5.7167021769
C        -0.6726753777    1.0949494633    6.5975349505
C        -0.7744529452    2.3529820154    6.0009360861
H        -0.7172748435    2.4427088034    4.9212570814
C        -0.9538059532    3.4739066470    6.7883217942
C        -0.9902620694    3.3600283580    8.1957892696
C        -0.8473672891    2.1199408393    8.7953589990
H        -0.8523851573    2.0314132690    9.8759950497
C        -0.7147901881    0.9723390552    8.0058914026
C        -1.1397195821    4.8769922345    6.4332270588
C        -1.2135834414    5.5727339696    5.2559468037
H        -1.1121795356    5.0843905672    4.2943664058
C        -1.2882400390    5.5714901644    7.6463161017
C        -1.5148040783    6.9389215466    7.7351163031
C        -1.2040027422    4.6984417864    8.7482387901
C        -1.3508079449    5.2215945070   10.0047273669
H        -1.3021716891    4.6027798384   10.8921289262
C        -1.4359535416    6.9683288340    5.3146919826
H        -1.4960525461    7.5220750876    4.3867889794
C        -1.5835043596    7.6407382929    6.5061798486
H        -1.7571044466    8.7097381547    6.5018438059
C        -1.5789615779    6.6131857030   10.1308258637
H        -1.6966405789    7.0273710992   11.1235390662
C        -1.6607099503    7.4548283804    9.0451554172
H        -1.8412175278    8.5120482436    9.1949879567
C        -0.6224601898   -1.5770006156    6.3598124303
C        -0.6702802678   -2.7123190655    5.5504409852
H        -0.6271303652   -2.6128075173    4.4716998497
C        -0.7703879656   -3.9613641517    6.1290546970
C        -0.7834396940   -4.1071391371    7.5351549400
C        -0.7114132814   -2.9865455426    8.3431668075
H        -0.6986240719   -3.0881730122    9.4229495727
C        -0.6513166757   -1.7128764841    7.7656528224
C        -0.8493568337   -5.2906338434    5.5261638634
C        -0.8746960771   -5.7771443666    4.2445707956
H        -0.8338514713   -5.1227456382    3.3824814693
C        -0.9046923094   -6.2015483023    6.5951079509
C        -0.9826786228   -7.5826634485    6.4363390643
C        -0.8666691875   -5.5408877762    7.8376883494
C        -0.9079490068   -6.3043179850    8.9755220125
H        -0.8818864241   -5.8621426501    9.9634607995
C        -0.9559796441   -7.1771434292    4.0521862782
H        -0.9759442640   -7.5603110598    3.0401277035
C        -1.0086990563   -8.0621692025    5.1039602458
H        -1.0695667584   -9.1266868719    4.9122855167
C        -0.9867848405   -7.7128737250    8.8479777229
H        -1.0188823550   -8.3103387262    9.7497442644
C        -1.0240748707   -8.3457680706    7.6273717982
H        -1.0842696767   -9.4263171748    7.5785673202
B        -0.5937806004   -0.4418446418    8.6576340061
C        -0.3430530452   -0.5629365373   10.1998039165
C        -1.3632283946   -0.4096682951   11.1443009454
C        -1.0580891608   -0.4278557003   12.5005170962
H        -1.8467307172   -0.3020903988   13.2343115058
C         0.2513905421   -0.5850354773   12.9289950135
C         1.2632724402   -0.7629228760   11.9924343879
H         2.2863502841   -0.8837021658   12.3294373895
C         0.9758809500   -0.7628540015   10.6355185131
N         0.5545684766   -0.5440357727   14.3067340523
C         0.1551920182    0.5747519224   15.0513088078
C        -0.2806183539    0.4429964175   16.3701062178
H        -0.3075629886   -0.5346979477   16.8341818596
C        -0.6859248430    1.5576856576   17.0857822276
H        -1.0217301611    1.4356056101   18.1076242488
C        -0.6846836837    2.8162657740   16.5001485920
H        -1.0105533038    3.6821999483   17.0607097267
C        -0.2611005850    2.9473625402   15.1853243271
H        -0.2469155916    3.9218487382   14.7138505742
C         0.1633954946    1.8422176547   14.4665326578
H         0.5011275975    1.9605627686   13.4447095022
C         1.3053100217   -1.5837512011   14.8697602675
C         2.2777845168   -1.3307123332   15.8375524763
H         2.4610407848   -0.3158424778   16.1657311055
C         3.0147993681   -2.3733190586   16.3754570371
H         3.7659767349   -2.1575700767   17.1245083550
C         2.8145178665   -3.6785057354   15.9484349172
H         3.3988575217   -4.4876690567   16.3657217641
C         1.8562867393   -3.9305290948   14.9765636427
H         1.6839669448   -4.9429272209   14.6340487934
C         1.1009374096   -2.8983679999   14.4455632509
H         0.3479211765   -3.1106224391   13.6971235706
C         2.0846892082   -0.9413101539    9.6345310526
H         3.0616798395   -0.9536284500   10.1165315226
H         1.9779363216   -1.8781461845    9.0838339135
H         2.0976423674   -0.1366918807    8.8945510094
C        -2.8037257756   -0.2880287609   10.7153729542
H        -2.8754679001    0.2482042375    9.7647718470
H        -3.3530756831    0.3156723839   11.4419052328
C        -3.4873450853   -1.6471774030   10.5737195105
H        -3.0135513512   -2.2521517506    9.8002933435
H        -3.4448971816   -2.2071643707   11.5086105298
H        -4.5363840537   -1.5277138760   10.3011041397
