134
 Final energy is   -3006.24064442346     
N         0.2349916259   -0.2824110229    0.0729458529
C         0.2191012274   -0.0286715069    1.4121412068
C         1.4242078936    0.0375046923    2.1474485050
H         2.3681345895   -0.1155225497    1.6399390104
C         1.3974063625    0.1855253327    3.5099801685
C         1.3572728626    0.0261611678   -0.7309627132
C         1.9500777789    1.2824889724   -0.6453372606
H         1.5541456634    2.0246888163    0.0358498812
C         3.0357291555    1.5783982065   -1.4520002277
H         3.4949200993    2.5554112459   -1.3899570987
C         3.5213286169    0.6347418291   -2.3456762487
H         4.3674513305    0.8716009243   -2.9762035953
C         2.9179002564   -0.6124285910   -2.4338472477
H         3.2960429008   -1.3515867895   -3.1268421794
C         1.8351769065   -0.9217876330   -1.6308360703
H         1.3680133203   -1.8960197863   -1.6924353939
C        -0.8690381206   -0.9090788160   -0.5572613749
C        -1.3811575215   -0.3810737507   -1.7381657009
H        -0.9492038533    0.5140790782   -2.1665726159
C        -2.4557243916   -1.0012163136   -2.3513562646
H        -2.8624001272   -0.5850216057   -3.2629836756
C        -3.0160646069   -2.1439382922   -1.7971040655
H        -3.8569198992   -2.6235427375   -2.2795498601
C        -2.4937242635   -2.6729986041   -0.6258885562
H        -2.9184948220   -3.5697391382   -0.1956671696
C        -1.4175703501   -2.0633000907   -0.0042384218
H        -1.0013248182   -2.4861487246    0.9014376832
C        -1.0164256724    0.1367017531    2.0794370612
H        -1.9338925979    0.1478823876    1.5051797719
C        -1.0550367317    0.2983081770    3.4377979677
C         0.1518778964    0.2712074758    4.1973736212
C        -2.3653094275    0.4559403702    4.1424118291
H        -3.2006527296    0.4678668736    3.4430713339
H        -2.3895214866    1.3746708092    4.7289315546
H        -2.5167836925   -0.3629033476    4.8482461137
C         2.6850155818    0.2117698065    4.2790176457
H         2.5746630487   -0.3767435015    5.1917912857
H         3.4725584327   -0.2633709325    3.6892593197
C         3.0995856696    1.6381902639    4.6358773313
H         2.3591553198    2.1164957044    5.2753635906
H         4.0457777805    1.6333364373    5.1760301871
H         3.2259094760    2.2494766228    3.7412437357
B         0.0695215702    0.1348175896    5.7654468755
C        -0.0907030250    1.3352322828    6.6861592134
C        -0.1849080592    2.6481551698    6.1760043765
H        -0.1171600409    2.8141491197    5.1036173125
C        -0.3769223172    3.7115702094    7.0180017209
C        -0.4682331568    3.5048052294    8.4248376695
C        -0.3581127531    2.2339878923    8.9407185514
H        -0.4240591158    2.0739108302   10.0116313139
C        -0.1806187040    1.1216881168    8.0941283531
C        -0.5520481175    5.1356946320    6.7527684455
C        -0.5813043463    5.9140898251    5.6246859474
H        -0.4390330664    5.4932489777    4.6365274008
C        -0.7513062039    5.7487655111    8.0040660981
C        -0.9877766093    7.1077972873    8.1753088717
C        -0.7080501972    4.8021290032    9.0494046852
C        -0.9092272097    5.2452855108   10.3307350692
H        -0.8962445290    4.5682663551   11.1757689662
C        -0.8116575509    7.3002255154    5.7687705560
H        -0.8364597605    7.9167877339    4.8790729721
C        -1.0107361731    7.8907708160    6.9954604431
H        -1.1893897153    8.9572584450    7.0566856428
C        -1.1472226183    6.6237499922   10.5379293236
H        -1.3068765359    6.9713021906   11.5505623283
C        -1.1888405144    7.5365101533    9.5095123212
H        -1.3799959707    8.5812407680    9.7209698398
C         0.0832410882   -1.2906023761    6.3119598338
C         0.1566454279   -2.4049769120    5.4497026502
H         0.2114302076   -2.2624391433    4.3742573100
C         0.1532637068   -3.6767065570    5.9521132238
C         0.0892650073   -3.9023193651    7.3588659602
C         0.0217705854   -2.8281655093    8.2149466106
H        -0.0298470934   -2.9853868548    9.2877367123
C         0.0056682546   -1.5082958345    7.7195831234
C         0.1983343867   -4.9726188792    5.2812684678
C         0.2584656492   -5.3933291902    3.9758836308
H         0.2932036715   -4.6904118060    3.1517614708
C         0.1598591949   -5.9442686611    6.2987353738
C         0.1773913426   -7.3179728751    6.0627650064
C         0.0959156635   -5.3498549686    7.5767156699
C         0.0500057346   -6.1831781542    8.6670240273
H        -0.0005810278   -5.7977407353    9.6773512541
C         0.2774577817   -6.7807451465    3.7077049095
H         0.3251134384   -7.1109767265    2.6773576595
C         0.2384542993   -7.7239372393    4.7081104487
H         0.2545998323   -8.7781748096    4.4586494112
C         0.0685448551   -7.5824962588    8.4585992361
H         0.0320791641   -8.2310946788    9.3246900776
C         0.1296832079   -8.1491319233    7.2072528380
H         0.1405443539   -9.2268935452    7.0982520022
B        -0.1126121884   -0.3082765500    8.6720753003
C        -0.1431663978   -0.5093553546   10.2372161329
C        -1.3426220271   -0.4893200670   10.9587462553
C        -1.3227756662   -0.5594942923   12.3470579600
H        -2.2526193086   -0.5289421677   12.9050236856
C        -0.1216489150   -0.6351196304   13.0339620626
C         1.0709589286   -0.6860029155   12.3241024132
H         2.0094230773   -0.7506380239   12.8628516576
C         1.0664292831   -0.6328780129   10.9370659108
N        -0.1133912603   -0.6311379119   14.4492386606
C        -0.7167409270    0.4385755395   15.1186461210
C        -1.3567198759    0.2564115460   16.3461885554
H        -1.3864443218   -0.7270229513   16.7972515888
C        -1.9628693928    1.3242689085   16.9856422405
H        -2.4546725159    1.1587419271   17.9357269611
C        -1.9660368481    2.5875283718   16.4125851894
H        -2.4498877082    3.4165337382   16.9111472075
C        -1.3424190988    2.7683697801   15.1868865110
H        -1.3319806648    3.7464049418   14.7226585910
C        -0.7169409886    1.7128132424   14.5469267228
H        -0.2292313621    1.8736033578   13.5944117962
C         0.5417874317   -1.6675713136   15.1212061774
C         1.2659763830   -1.4327270280   16.2908853696
H         1.3242810157   -0.4308287480   16.6957870935
C         1.9187381942   -2.4729739025   16.9304618160
H         2.4762459487   -2.2683665000   17.8355620826
C         1.8840820571   -3.7589816163   16.4118098817
H         2.4035272702   -4.5664194240   16.9100849998
C         1.1768489815   -3.9922113406   15.2413565886
H         1.1371289946   -4.9891631726   14.8213124829
C         0.5050100784   -2.9640475096   14.6035847089
H        -0.0487850434   -3.1621841645   13.6950134147
C         2.3665643367   -0.6706744451   10.1828293724
H         3.2230285535   -0.6952585723   10.8566057887
H         2.4249123861   -1.5493003919    9.5375811602
H         2.4758325260    0.2013362459    9.5345744423
C        -2.6723911907   -0.4361062397   10.2497979331
H        -2.5909067007    0.1672800653    9.3422625269
H        -3.4061274302    0.0675921513   10.8847794274
C        -3.1923909676   -1.8244697404    9.8827855812
H        -2.5113579699   -2.3307560923    9.1991273039
H        -3.3038792762   -2.4506200596   10.7690567138
H        -4.1656436168   -1.7603824404    9.3937494208
