134
 Final energy is   -3006.26343819958     
N         0.1969820647   -0.2462124040    0.0528066575
C         0.1890488501   -0.0237150059    1.3989122737
C         1.3973539519    0.0283276058    2.1272447681
H         2.3395583063   -0.1149478272    1.6133520881
C         1.3771326655    0.1564238727    3.4941202642
C         1.3080899392    0.0933312994   -0.7513350235
C         1.9041736416    1.3456104461   -0.6242140050
H         1.5159685478    2.0648899837    0.0854346011
C         2.9801370908    1.6691706867   -1.4331447567
H         3.4409078782    2.6432068483   -1.3420173980
C         3.4537685462    0.7573979884   -2.3664854035
H         4.2929922031    1.0165290236   -2.9976881328
C         2.8472496831   -0.4856871585   -2.4944530924
H         3.2166611448   -1.1995119880   -3.2180964922
C         1.7725890375   -0.8225324335   -1.6920773925
H         1.3048349239   -1.7941646734   -1.7833640082
C        -0.9058992791   -0.8680686836   -0.5812268328
C        -1.4246542636   -0.3234372544   -1.7527715788
H        -1.0001309827    0.5807931036   -2.1695943561
C        -2.5006211612   -0.9382939718   -2.3684774949
H        -2.9143672271   -0.5098572558   -3.2712744171
C        -3.0532609728   -2.0921893248   -1.8278916502
H        -3.8945655462   -2.5680378360   -2.3135548782
C        -2.5229837792   -2.6376144192   -0.6670951108
H        -2.9413944796   -3.5433978782   -0.2496676416
C        -1.4470497637   -2.0325392802   -0.0408113526
H        -1.0219879775   -2.4695392657    0.8539537798
C        -1.0414657009    0.1225705431    2.0773042874
H        -1.9635385590    0.1444872355    1.5107214423
C        -1.0703786845    0.2581615821    3.4407199717
C         0.1397938595    0.2333740959    4.1884249006
C        -2.3804824588    0.3969082069    4.1526579119
H        -3.2181748324    0.4011204748    3.4561784197
H        -2.4156456918    1.3150022572    4.7397313641
H        -2.5237721328   -0.4256471868    4.8558124664
C         2.6747241268    0.1882233430    4.2484764553
H         2.5699177095   -0.3597186077    5.1865670039
H         3.4470591528   -0.3230875174    3.6692412602
C         3.1158383371    1.6218044496    4.5371913346
H         2.3874709863    2.1398338916    5.1599968213
H         4.0676433093    1.6290139647    5.0676355611
H         3.2393782135    2.1888430332    3.6133894729
B         0.0724473602    0.1107053279    5.7613103010
C        -0.0716873069    1.3226550999    6.6721932899
C        -0.1652710571    2.6276454651    6.1433518144
H        -0.1095056539    2.7758038275    5.0680657084
C        -0.3415581159    3.7058444138    6.9708582994
C        -0.4185560466    3.5220174330    8.3826835252
C        -0.3120719372    2.2583422214    8.9171359148
H        -0.3695357227    2.1163727057    9.9912811218
C        -0.1487806137    1.1314655478    8.0853365487
C        -0.5094351008    5.1262645279    6.6846238834
C        -0.5455063281    5.8867076378    5.5435914880
H        -0.4185421791    5.4487325628    4.5607685091
C        -0.6888115044    5.7614269285    7.9284675063
C        -0.9108602088    7.1257768502    8.0800527324
C        -0.6404898819    4.8316006789    8.9891242129
C        -0.8204112001    5.2980749313   10.2661558969
H        -0.8008989717    4.6358294459   11.1227674408
C        -0.7622749859    7.2773894126    5.6680866578
H        -0.7924576634    7.8793894712    4.7685451527
C        -0.9411990734    7.8903063416    6.8876180190
H        -1.1094353947    8.9593273016    6.9337078097
C        -1.0437758819    6.6822701570   10.4530427981
H        -1.1865143795    7.0480679936   11.4618782144
C        -1.0909153824    7.5787318569    9.4096237178
H        -1.2699013819    8.6286738933    9.6059174339
C         0.0932703529   -1.3057728991    6.3342130329
C         0.1626972858   -2.4319223809    5.4877262137
H         0.2056101976   -2.3024340541    4.4104083002
C         0.1712937410   -3.6972617021    6.0090031139
C         0.1214617389   -3.9019993470    7.4203209001
C         0.0558441954   -2.8159334199    8.2611805381
H         0.0130644274   -2.9602086653    9.3361651439
C         0.0307318616   -1.5026604515    7.7463746649
C         0.2186188263   -5.0031709033    5.3579173624
C         0.2694624849   -5.4439212574    4.0580359376
H         0.2898098325   -4.7544815666    3.2223189362
C         0.1961715963   -5.9595011159    6.3910431100
C         0.2215861944   -7.3370229753    6.1763471024
C         0.1390974755   -5.3462263909    7.6606212867
C         0.1078301476   -6.1626533946    8.7648948486
H         0.0629456901   -5.7619984136    9.7697076769
C         0.2963251274   -6.8358811617    3.8118162937
H         0.3362533692   -7.1811772530    2.7860835072
C         0.2737497009   -7.7643578252    4.8272469752
H         0.2953891591   -8.8223439823    4.5943487052
C         0.1342741662   -7.5652532337    8.5778865027
H         0.1093121451   -8.2006258926    9.4542408132
C         0.1893147102   -8.1509229045    7.3342162109
H         0.2067991469   -9.2302198232    7.2414809083
B        -0.0825388116   -0.2896834304    8.6828443719
C        -0.1181697531   -0.4778795126   10.2509511063
C        -1.3224701901   -0.4608953710   10.9652428308
C        -1.3130505764   -0.5432523008   12.3534834812
H        -2.2482256959   -0.5204084733   12.9031957300
C        -0.1171570731   -0.6275247846   13.0488063920
C         1.0809554211   -0.6689258980   12.3469320342
H         2.0161974621   -0.7389198211   12.8909905303
C         1.0863546611   -0.6046129750   10.9597605523
N        -0.1193703039   -0.6508878940   14.4641047820
C        -0.7560700375    0.3883123246   15.1513005087
C        -1.4300005583    0.1572850341   16.3523053500
H        -1.4611702561   -0.8406225960   16.7705519704
C        -2.0706315751    1.1957121887   17.0078288132
H        -2.5887515658    0.9922740724   17.9364253920
C        -2.0742829716    2.4773960431   16.4758350400
H        -2.5849461478    3.2832296717   16.9858485696
C        -1.4162153910    2.7070095603   15.2758443400
H        -1.4059123028    3.6997298354   14.8437976486
C        -0.7564588777    1.6808270710   14.6214220505
H        -0.2431471711    1.8800865690   13.6896906747
C         0.5202308266   -1.7062188215   15.1221551670
C         1.2205132479   -1.5001075703   16.3122109911
H         1.2725262779   -0.5082314245   16.7422929215
C         1.8578710391   -2.5564134987   16.9417496626
H         2.3965598200   -2.3736981809   17.8629161468
C         1.8314526544   -3.8307685300   16.3928777969
H         2.3388405224   -4.6508134070   16.8832278964
C         1.1480581078   -4.0354801321   15.2025057755
H         1.1146490109   -5.0225037410   14.7588327779
C         0.4912728818   -2.9907709098   14.5744161734
H        -0.0448874696   -3.1695655311   13.6512217404
C         2.3927609351   -0.6408653635   10.2160520598
H         3.2439318377   -0.6610369333   10.8967146938
H         2.4583826376   -1.5218620346    9.5745198783
H         2.5050599311    0.2284013451    9.5647385139
C        -2.6482977703   -0.4027880701   10.2490880741
H        -2.5589792433    0.1981437001    9.3407923759
H        -3.3833974801    0.1046178670   10.8795181197
C        -3.1728578582   -1.7893372731    9.8810011191
H        -2.4867160856   -2.3021357921    9.2072008627
H        -3.2992141894   -2.4120551087   10.7679127948
H        -4.1397070786   -1.7201614308    9.3800500518
