134
 Final energy is   -3006.24068471547     
N         0.2292067414   -0.2772510745    0.0723590913
C         0.2160590589   -0.0250546009    1.4121791683
C         1.4219241511    0.0313610356    2.1467978518
H         2.3646802952   -0.1257607383    1.6383710115
C         1.3966308407    0.1761275981    3.5096220996
C         1.3517946791    0.0279733103   -0.7320648986
C         1.9513236121    1.2808970762   -0.6428414677
H         1.5599102289    2.0228782487    0.0411942105
C         3.0377911985    1.5738706328   -1.4494239495
H         3.5021119286    2.5482688096   -1.3844423895
C         3.5176707040    0.6307793647   -2.3467840451
H         4.3644496135    0.8653636995   -2.9772786566
C         2.9075940396   -0.6128808775   -2.4386221136
H         3.2812145394   -1.3516856706   -3.1344489674
C         1.8240842041   -0.9193921121   -1.6355722317
H         1.3520663320   -1.8911055536   -1.6999171160
C        -0.8779717530   -0.8995057363   -0.5564395578
C        -1.3895750842   -0.3699408576   -1.7369065967
H        -0.9547126738    0.5234406131   -2.1660728332
C        -2.4671168825   -0.9863205828   -2.3486806480
H        -2.8732738145   -0.5689368103   -3.2599993912
C        -3.0310828282   -2.1267717008   -1.7934101004
H        -3.8742291051   -2.6034360653   -2.2747767032
C        -2.5094117111   -2.6573379081   -0.6225884098
H        -2.9370247172   -3.5523503463   -0.1915785644
C        -1.4302888478   -2.0514459962   -0.0023894976
H        -1.0145307778   -2.4756195050    0.9028869434
C        -1.0177491175    0.1489073714    2.0803185678
H        -1.9354192969    0.1664764373    1.5065201679
C        -1.0548561676    0.3102637186    3.4388252940
C         0.1519954398    0.2711713584    4.1977057930
C        -2.3640583490    0.4770560285    4.1434460308
H        -3.1993218327    0.4917523332    3.4440786312
H        -2.3835606004    1.3974745036    4.7274252543
H        -2.5200376990   -0.3390290307    4.8514922273
C         2.6847819792    0.1932300320    4.2781327034
H         2.5733470544   -0.3995726441    5.1879353633
H         3.4702002411   -0.2816727963    3.6853731160
C         3.1045895355    1.6163729707    4.6421671598
H         2.3650645912    2.0949949052    5.2825442947
H         4.0498041993    1.6051362411    5.1839447051
H         3.2350506913    2.2312610959    3.7506069411
B         0.0702508037    0.1338818758    5.7649721606
C        -0.0945503819    1.3337096734    6.6857802461
C        -0.1871006307    2.6468701211    6.1759581359
H        -0.1174656718    2.8132629187    5.1037580211
C        -0.3782139263    3.7102054785    7.0182805002
C        -0.4694272365    3.5031600977    8.4250602582
C        -0.3602531279    2.2321725254    8.9405752911
H        -0.4254418218    2.0718845055   10.0115001071
C        -0.1838645056    1.1199039632    8.0936336745
C        -0.5508212181    5.1347411731    6.7535536032
C        -0.5786360436    5.9135708078    5.6257502905
H        -0.4374307642    5.4927888297    4.6374152797
C        -0.7484396555    5.7477966671    8.0051148853
C        -0.9817312514    7.1073027449    8.1769192961
C        -0.7065508085    4.8007735166    9.0501396196
C        -0.9057927379    5.2439763660   10.3317250962
H        -0.8935282197    4.5667085923   11.1765694150
C        -0.8059414657    7.3001550957    5.7703842614
H        -0.8296043323    7.9170901056    4.8809161821
C        -1.0033489593    7.8907120003    6.9973353391
H        -1.1795728813    8.9575792034    7.0589691123
C        -1.1406215372    6.6229102951   10.5395000077
H        -1.2986885036    6.9705287126   11.5523572284
C        -1.1809461424    7.5360540410    9.5113838955
H        -1.3695622475    8.5811540800    9.7232926177
C         0.0885756285   -1.2915659765    6.3115279565
C         0.1639817201   -2.4058030844    5.4491379790
H         0.2197478359   -2.2630759093    4.3737799472
C         0.1601900517   -3.6775533942    5.9513825705
C         0.0928710611   -3.9034151577    7.3579748942
C         0.0229634767   -2.8294816629    8.2140350883
H        -0.0313966221   -2.9868935147    9.2866562002
C         0.0075295477   -1.5094598424    7.7188839656
C         0.2064958937   -4.9733715347    5.2804196208
C         0.2690786874   -5.3938549686    3.9750871755
H         0.3058482484   -4.6908319121    3.1511552483
C         0.1653159484   -5.9451808205    6.2976299891
C         0.1824541963   -7.3188532255    6.0614364226
C         0.0986028105   -5.3510065799    7.5755695586
C         0.0495674116   -6.1844972255    8.6656027299
H        -0.0033074625   -5.7992181057    9.6758726293
C         0.2877923737   -6.7812466510    3.7066993046
H         0.3373213926   -7.1112816580    2.6763808380
C         0.2461173835   -7.7246025736    4.7068326894
H         0.2620582305   -8.7788046170    4.4572101815
C         0.0677858374   -7.5837877178    8.4569574420
H         0.0288308572   -8.2325338183    9.3228268695
C         0.1315336878   -8.1502019634    7.2056431721
H         0.1419216600   -9.2279484713    7.0964389966
B        -0.1138941292   -0.3099365874    8.6714836153
C        -0.1447045500   -0.5113118486   10.2365543882
C        -1.3442289849   -0.4911296505   10.9579867213
C        -1.3245848644   -0.5615416777   12.3462818120
H        -2.2544659309   -0.5308304471   12.9041782034
C        -0.1235501955   -0.6376225674   13.0333051956
C         1.0691289059   -0.6887094074   12.3235641034
H         2.0075225663   -0.7536347442   12.8623984911
C         1.0648100125   -0.6352430303   10.9365502740
N        -0.1155118008   -0.6336421295   14.4485522095
C        -0.7165531880    0.4373655394   15.1178954782
C        -1.3548450620    0.2569884267   16.3466222950
H        -1.3851062744   -0.7260515718   16.7985107531
C        -1.9585588237    1.3261183086   16.9862050476
H        -2.4490275159    1.1619773188   17.9372190937
C        -1.9609760638    2.5889724384   16.4121979776
H        -2.4429035414    3.4190006615   16.9109172134
C        -1.3391493117    2.7680206090   15.1853515892
H        -1.3281712075    3.7456767131   14.7203381513
C        -0.7161163058    1.7111436774   14.5451640051
H        -0.2297197908    1.8706567517   13.5917695950
C         0.5404506365   -1.6697527636   15.1203802422
C         1.2669854257   -1.4343064139   16.2884372290
H         1.3265807834   -0.4321207530   16.6924260789
C         1.9205165954   -2.4743883702   16.9275491649
H         2.4799096928   -2.2693709246   17.8313897355
C         1.8842272942   -3.7607543657   16.4099496052
H         2.4042679067   -4.5680495936   16.9078383411
C         1.1746192394   -3.9945971782   15.2410339560
H         1.1336414436   -4.9918651053   14.8218695080
C         0.5020451803   -2.9666065381   14.6038013527
H        -0.0535948455   -3.1650748145   13.6964250817
C         2.3651650628   -0.6726870730   10.1826589609
H         3.2213565303   -0.6987656575   10.8567261066
H         2.4232923997   -1.5503263712    9.5360823188
H         2.4751555341    0.2002673667    9.5357922450
C        -2.6738708178   -0.4377780086   10.2488547152
H        -2.5922465452    0.1658043167    9.3414734279
H        -3.4077962557    0.0656630224   10.8838166784
C        -3.1934334362   -1.8261729798    9.8813055461
H        -2.5121547187   -2.3319235864    9.1974696512
H        -3.3046912601   -2.4527090395   10.7673271473
H        -4.1666845400   -1.7622682778    9.3922481440
134
 Final energy is   -3006.26345864581     
N         0.1923342669   -0.2448417613    0.0525373572
C         0.1868146298   -0.0232157037    1.3990129342
C         1.3959580865    0.0213710848    2.1262955067
H         2.3370458323   -0.1254952849    1.6113823485
C         1.3774066322    0.1475471897    3.4932978290
C         1.3034274674    0.0920021790   -0.7524990816
C         1.9045868786    1.3416912609   -0.6234144487
H         1.5200575632    2.0609388526    0.0882647097
C         2.9807732563    1.6629017459   -1.4329348397
H         3.4453950135    2.6349547134   -1.3401893138
C         3.4496872548    0.7514345338   -2.3689656270
H         4.2890984290    1.0087328699   -3.0006680615
C         2.8381285288   -0.4889634412   -2.4989756263
H         3.2038164202   -1.2025877590   -3.2247083137
C         1.7632449756   -0.8235106571   -1.6959395623
H         1.2918131682   -1.7932228948   -1.7887711295
C        -0.9134034761   -0.8629363736   -0.5800379346
C        -1.4319543776   -0.3168493713   -1.7510176785
H        -1.0050633116    0.5859502891   -2.1685304476
C        -2.5106385689   -0.9284317449   -2.3652308399
H        -2.9241852270   -0.4988734217   -3.2675872422
C        -3.0662615223   -2.0804534482   -1.8236960012
H        -3.9096704188   -2.5537318446   -2.3082210662
C        -2.5362975335   -2.6272985696   -0.6634274538
H        -2.9570724505   -3.5316511487   -0.2452760258
C        -1.4576561425   -2.0255236180   -0.0386450197
H        -1.0328491005   -2.4636822193    0.8556693409
C        -1.0421914425    0.1297883769    2.0784121533
H        -1.9646409484    0.1561694044    1.5126255021
C        -1.0694429486    0.2661103149    3.4418772503
C         0.1410529788    0.2327411688    4.1884749155
C        -2.3785749072    0.4124531717    4.1542235300
H        -3.2164671105    0.4179030851    3.4580050524
H        -2.4099699205    1.3325701711    4.7383029859
H        -2.5250471164   -0.4072635902    4.8600161524
C         2.6756763047    0.1720912200    4.2467907499
H         2.5702467233   -0.3792864928    5.1827641469
H         3.4459750990   -0.3391686365    3.6648104538
C         3.1211424032    1.6032545053    4.5409441588
H         2.3940690111    2.1213785886    5.1652310086
H         4.0726705888    1.6054983933    5.0719329245
H         3.2469768391    2.1732588960    3.6192892738
B         0.0746519488    0.1111592605    5.7609699722
C        -0.0732318323    1.3235395926    6.6706686681
C        -0.1659848823    2.6281361266    6.1406754464
H        -0.1087847586    2.7755648094    5.0653631100
C        -0.3421794589    3.7070577565    6.9672254199
C        -0.4192538148    3.5245000282    8.3792255677
C        -0.3129638096    2.2613226518    8.9147855950
H        -0.3698932782    2.1203459835    9.9890938791
C        -0.1499432805    1.1336076036    8.0839702741
C        -0.5091963929    5.1273120908    6.6797279884
C        -0.5448223881    5.8867397903    5.5380101344
H        -0.4181759286    5.4477901852    4.5555803031
C        -0.6881016419    5.7636971677    7.9230132776
C        -0.9092429506    7.1283366151    8.0733608128
C        -0.6403240166    4.8348051954    8.9845050699
C        -0.8198770618    5.3025582410   10.2611089830
H        -0.8007031038    4.6411001460   11.1183293216
C        -0.7606551283    7.2776809413    5.6612541138
H        -0.7904571168    7.8788898140    4.7611713026
C        -0.9391141821    7.8918118779    6.8802385477
H        -1.1066007207    8.9609914338    6.9253766523
C        -1.0423430604    6.6870706209   10.4467441803
H        -1.1847747019    7.0538754167   11.4552577673
C        -1.0889354400    7.5826170838    9.4025196489
H        -1.2671732835    8.6328617834    9.5978748646
C         0.0999506050   -1.3047245963    6.3352499471
C         0.1719829410   -2.4315878827    5.4898360470
H         0.2154691016   -2.3030519933    4.4124307068
C         0.1814947668   -3.6963981546    6.0123192155
C         0.1291087455   -3.8998460021    7.4237492048
C         0.0605820033   -2.8131413584    8.2634427037
H         0.0155330461   -2.9565745016    9.3384381443
C         0.0350385401   -1.5002724343    7.7474647798
C         0.2310691864   -5.0028920570    5.3625611776
C         0.2844640960   -5.4448571801    4.0631996087
H         0.3058410052   -4.7562271683    3.2268492735
C         0.2073042398   -5.9582592286    6.3965594257
C         0.2338287694   -7.3359713196    6.1832338094
C         0.1473008104   -5.3438442385    7.6654395884
C         0.1142004898   -6.1592162887    8.7704207804
H         0.0669760818   -5.7576131222    9.7747473508
C         0.3125545451   -6.8370452750    3.8183659846
H         0.3544640221   -7.1832771888    2.7930294437
C         0.2886808786   -7.7645694923    4.8346330420
H         0.3112884805   -8.8227658148    4.6027895762
C         0.1418007850   -7.5619777037    8.5848138183
H         0.1153718422   -8.1965339558    9.4617159355
C         0.1996786552   -8.1487831857    7.3418086263
H         0.2178745532   -9.2281581402    7.2501215779
B        -0.0818114359   -0.2867907523    8.6828120969
C        -0.1182196117   -0.4745215788   10.2509886950
C        -1.3227698868   -0.4576015140   10.9649519916
C        -1.3138804608   -0.5414989190   12.3530979002
H        -2.2492796540   -0.5190747811   12.9024330921
C        -0.1182830089   -0.6272223924   13.0487722888
C         1.0800599225   -0.6679787227   12.3472892502
H         2.0150564931   -0.7389362500   12.8916462951
C         1.0860184609   -0.6021400614   10.9601781307
N        -0.1209409890   -0.6532076475   14.4640204064
C        -0.7589325945    0.3841377686   15.1528891016
C        -1.4354780000    0.1499298547   16.3517822100
H        -1.4677660215   -0.8491203424   16.7671960567
C        -2.0773253976    1.1866900505   17.0087747639
H        -2.5974747843    0.9808350877   17.9357006512
C        -2.0795958073    2.4698062267   16.4802514595
H        -2.5911945278    3.2743448969   16.9913714002
C        -1.4189397885    2.7025898146   15.2822898094
H        -1.4075520828    3.6964849086   14.8529856029
C        -0.7579653622    1.6780666505   14.6264973785
H        -0.2426521383    1.8796831269   13.6963747426
C         0.5165533841   -1.7108422386   15.1203684566
C         1.2146717675   -1.5083990415   16.3123597846
H         1.2666401763   -0.5176782668   16.7451005459
C         1.8498582980   -2.5668405753   16.9404723468
H         2.3868493956   -2.3869250953   17.8631815045
C         1.8234529860   -3.8397823038   16.3883191706
H         2.3291375030   -4.6615190753   16.8775939105
C         1.1422863844   -4.0408405632   15.1960559447
H         1.1089186864   -5.0266989908   14.7497943964
C         0.4876485510   -2.9939756372   14.5693008121
H        -0.0468681119   -3.1700711424   13.6446401405
C         2.3928541286   -0.6379104121   10.2171737633
H         3.2436178773   -0.6576982897   10.8983573900
H         2.4592407920   -1.5189072800    9.5757325522
H         2.5051967517    0.2313435749    9.5658633779
C        -2.6482975579   -0.3980052713   10.2483817478
H        -2.5590173682    0.2066752237    9.3425655913
H        -3.3841736656    0.1061930721   10.8804692348
C        -3.1715707496   -1.7834363514    9.8743302216
H        -2.4843958218   -2.2933073337    9.1993749011
H        -3.2987497775   -2.4096750872   10.7586526718
H        -4.1378602083   -1.7128188505    9.3724889039
134
 Final energy is   -3006.26788927984     
N         0.1897759810   -0.2407446013    0.0495238894
C         0.1843205063   -0.0228123254    1.3970056387
C         1.3932325344    0.0201136779    2.1240007987
H         2.3344985079   -0.1256477963    1.6090373866
C         1.3744880564    0.1441035515    3.4916681014
C         1.2994305808    0.1009532833   -0.7547761017
C         1.9004014224    1.3503251283   -0.6197562154
H         1.5161512816    2.0662916979    0.0953670544
C         2.9753075485    1.6758954591   -1.4291907241
H         3.4394932564    2.6477806315   -1.3324839313
C         3.4434494872    0.7690924838   -2.3703370347
H         4.2819510914    1.0299638091   -3.0018168073
C         2.8323063905   -0.4710845722   -2.5058465851
H         3.1975544615   -1.1810539597   -3.2353827859
C         1.7583706671   -0.8099378142   -1.7034274432
H         1.2876605886   -1.7796121186   -1.8002391936
C        -0.9148441178   -0.8593079206   -0.5838534593
C        -1.4338801393   -0.3119462850   -1.7542593460
H        -1.0085138811    0.5922218025   -2.1703758440
C        -2.5120266798   -0.9238237571   -2.3690511461
H        -2.9262593215   -0.4933913052   -3.2706849841
C        -3.0661983458   -2.0774201084   -1.8290221076
H        -3.9090446034   -2.5510223592   -2.3142576737
C        -2.5355502654   -2.6254693634   -0.6694826883
H        -2.9550725643   -3.5311363380   -0.2529054594
C        -1.4577923304   -2.0232451223   -0.0436700451
H        -1.0319389408   -2.4626443434    0.8495263182
C        -1.0443943799    0.1279003931    2.0767905056
H        -1.9670565672    0.1558097624    1.5114151763
C        -1.0712815260    0.2608663285    3.4410008271
C         0.1389353660    0.2279149365    4.1867668652
C        -2.3810935005    0.4048150323    4.1531657733
H        -3.2186409241    0.4093173127    3.4565538103
H        -2.4144525582    1.3249470293    4.7371524622
H        -2.5273682441   -0.4153964428    4.8584256365
C         2.6737339311    0.1703571698    4.2438784803
H         2.5685299187   -0.3739231365    5.1840145193
H         3.4422473125   -0.3467053250    3.6647409650
C         3.1226945005    1.6026803591    4.5266997983
H         2.3968208882    2.1271213724    5.1472466951
H         4.0747816630    1.6075230549    5.0567366990
H         3.2484121843    2.1650528547    3.6003515285
B         0.0736226172    0.1079278701    5.7598690921
C        -0.0722118082    1.3215629474    6.6688081816
C        -0.1656216384    2.6251014363    6.1364928567
H        -0.1104379788    2.7702721370    5.0608397725
C        -0.3400688503    3.7058247256    6.9612982349
C        -0.4147063118    3.5261116123    8.3739969282
C        -0.3080790813    2.2639051163    8.9118597197
H        -0.3636218431    2.1253186607    9.9865858452
C        -0.1466980634    1.1343781171    8.0828344380
C        -0.5071795405    5.1254714681    6.6712356518
C        -0.5445421795    5.8825821462    5.5278485077
H        -0.4198654819    5.4415807116    4.5460829958
C        -0.6835849187    5.7644977020    7.9136369711
C        -0.9037399132    7.1296784299    8.0615597783
C        -0.6341703612    4.8378017941    8.9770736986
C        -0.8108028901    5.3083646906   10.2532167017
H        -0.7899902506    4.6488609915   11.1119315904
C        -0.7595519340    7.2739581635    5.6487251640
H        -0.7907488443    7.8732759847    4.7474247709
C        -0.9354627746    7.8908212934    6.8668528290
H        -1.1023501619    8.9601804766    6.9101320262
C        -1.0322741636    6.6934630787   10.4363144663
H        -1.1724182371    7.0624751419   11.4443564086
C        -1.0805761584    7.5869146131    9.3901745950
H        -1.2579294732    8.6376767154    9.5836244712
C         0.0998197096   -1.3068558296    6.3378277719
C         0.1709312140   -2.4351218941    5.4942878973
H         0.2123871644   -2.3081753713    4.4166786051
C         0.1821908036   -3.6991935209    6.0190897734
C         0.1323508936   -3.9001022650    7.4311332983
C         0.0644931413   -2.8119718538    8.2690258771
H         0.0211270969   -2.9539838189    9.3442813350
C         0.0375095758   -1.4998604570    7.7506715988
C         0.2315875290   -5.0068823884    5.3717006201
C         0.2829328678   -5.4512324799    4.0729326491
H         0.3019371474   -4.7643042131    3.2351505586
C         0.2103322449   -5.9603543104    6.4076355372
C         0.2374952427   -7.3385410024    6.1968626523
C         0.1519271199   -5.3437151302    7.6755606549
C         0.1211108677   -6.1570182837    8.7822757977
H         0.0751710274   -5.7536308397    9.7859776106
C         0.3116780136   -6.8440036046    3.8307887525
H         0.3518765416   -7.1919956037    2.8059880131
C         0.2903562909   -7.7697665733    4.8488875050
H         0.3133310985   -8.8284017820    4.6190625597
C         0.1493968483   -7.5601934944    8.5992149069
H         0.1247782921   -8.1931375542    9.4773456554
C         0.2057650952   -8.1492805451    7.3570607310
H         0.2245680808   -9.2288178007    7.2672641472
B        -0.0782202576   -0.2848510517    8.6841396511
C        -0.1143696864   -0.4708066647   10.2527603528
C        -1.3192758826   -0.4543669875   10.9663023125
C        -1.3112042746   -0.5390371704   12.3545019783
H        -2.2471718025   -0.5176651229   12.9029715347
C        -0.1160201368   -0.6251982638   13.0509150259
C         1.0827874221   -0.6649071509   12.3499684183
H         2.0176584623   -0.7359881309   12.8945892989
C         1.0894809700   -0.5982813612   10.9628025740
N        -0.1194579348   -0.6538810957   14.4660556828
C        -0.7631701103    0.3789297551   15.1567439410
C        -1.4447888493    0.1376540771   16.3513614393
H        -1.4766406463   -0.8632306333   16.7624167965
C        -2.0925526610    1.1699593139   17.0098272836
H        -2.6166454401    0.9587798810   17.9333410611
C        -2.0955820780    2.4554179864   16.4867252649
H        -2.6118004909    3.2564090133   16.9988299897
C        -1.4296426991    2.6952651203   15.2929469886
H        -1.4187314491    3.6910639198   14.8680493360
C        -0.7627764035    1.6751558252   14.6359591418
H        -0.2434890474    1.8822538690   13.7092076322
C         0.5167672546   -1.7131686890   15.1211483998
C         1.2117381894   -1.5131539995   16.3154541971
H         1.2623009735   -0.5234679639   16.7507964144
C         1.8456129741   -2.5728717143   16.9429517096
H         2.3800932117   -2.3948540393   17.8675014634
C         1.8209707513   -3.8447005038   16.3878377395
H         2.3256170515   -4.6674005117   16.8766138601
C         1.1428566654   -4.0433648930   15.1933122472
H         1.1107502728   -5.0282705724   14.7448208545
C         0.4894907967   -2.9951526525   14.5671788792
H        -0.0428476195   -3.1698127268   13.6409533180
C         2.3969210948   -0.6339199214   10.2207832998
H         3.2472062914   -0.6530210118   10.9025865196
H         2.4640898248   -1.5153274511    9.5799544861
H         2.5094975337    0.2348537510    9.5688778694
C        -2.6447535139   -0.3956240404   10.2494961731
H        -2.5548951996    0.2057414647    9.3415715203
H        -3.3802285156    0.1112160913   10.8799227446
C        -3.1692412854   -1.7819028193    9.8801379771
H        -2.4817124577   -2.2949930661    9.2079287375
H        -3.2980804133   -2.4046836952   10.7666817186
H        -4.1348673090   -1.7120902502    9.3769205419
134
 Final energy is   -3006.28235976141     
N         0.2014994539   -0.0909866360    0.0092281392
C         0.1696577765   -0.0219994141    1.3775282797
C         1.3681282695    0.0276829800    2.1146302663
H         2.3182315856   -0.0199444350    1.5967039875
C         1.3349606619    0.0463527329    3.4900991866
C         1.2534706361    0.4968731479   -0.7214475642
C         1.6853054605    1.7818181304   -0.3948010700
H         1.2054508487    2.3312222363    0.4047002328
C         2.7100926749    2.3580013953   -1.1238487600
H         3.0405874010    3.3583003630   -0.8799186464
C         3.2987495520    1.6633233593   -2.1728005195
H         4.0990951641    2.1183066583   -2.7405886474
C         2.8574377993    0.3860203049   -2.4980086005
H         3.3189208914   -0.1582341691   -3.3107566537
C         1.8329725214   -0.2021839989   -1.7797179899
H         1.4986113590   -1.2026329711   -2.0220886868
C        -0.8206046424   -0.7574617274   -0.6987450366
C        -1.3752582028   -0.1682905682   -1.8339997850
H        -1.0400329313    0.8058395090   -2.1656003138
C        -2.3817164885   -0.8282161228   -2.5157866449
H        -2.8249732104   -0.3674167154   -3.3881258912
C        -2.8307660529   -2.0686798512   -2.0785093768
H        -3.6185040096   -2.5786011135   -2.6167203149
C        -2.2662069021   -2.6554820936   -0.9536221254
H        -2.6026161715   -3.6273244755   -0.6188907258
C        -1.2592965063   -2.0069415746   -0.2609353775
H        -0.8024016254   -2.4743295680    0.6018998578
C        -1.0687379962   -0.0195025833    2.0512086446
H        -1.9891609442   -0.0109152351    1.4809985932
C        -1.1085494757    0.0187909657    3.4231460492
C         0.0957460842    0.0325134099    4.1743272341
C        -2.4291653618    0.0328030435    4.1316458931
H        -3.2622115264    0.0325365326    3.4296664349
H        -2.5233111177    0.9089463634    4.7743029363
H        -2.5294796918   -0.8404733566    4.7787190321
C         2.6324194274    0.0868486786    4.2474107523
H         2.5232797697   -0.4321330308    5.2013479574
H         3.3992633559   -0.4501327149    3.6841819669
C         3.0918296970    1.5226211096    4.4925018351
H         2.3661537548    2.0697095006    5.0937869322
H         4.0425087102    1.5363398419    5.0252544625
H         3.2244535395    2.0578533399    3.5510214888
B         0.0272018267   -0.0748976750    5.7490732939
C        -0.1025013290    1.1651780707    6.6276646646
C        -0.1964997410    2.4519587667    6.0566026905
H        -0.1647221791    2.5631125902    4.9762761949
C        -0.3370457713    3.5609036882    6.8504986025
C        -0.3802194897    3.4277780541    8.2702167131
C        -0.2828049319    2.1811564519    8.8454279170
H        -0.3192375360    2.0778050682    9.9250191926
C        -0.1531644951    1.0236331860    8.0487971606
C        -0.4827250642    4.9731923392    6.5184639494
C        -0.5301826327    5.6938068671    5.3514599308
H        -0.4400286061    5.2183137749    4.3820556717
C        -0.6128378888    5.6558458110    7.7436278033
C        -0.7948099217    7.0307586345    7.8518619701
C        -0.5563368121    4.7630123563    8.8356838058
C        -0.6853188635    5.2794258646   10.1002988564
H        -0.6543636141    4.6488147881   10.9802456610
C        -0.7081509982    7.0935759539    5.4321710687
H        -0.7470618128    7.6641950499    4.5127062654
C        -0.8378915304    7.7539711876    6.6336695846
H        -0.9764596154    8.8281880085    6.6460550947
C        -0.8684527930    6.6751560961   10.2428343965
H        -0.9708895140    7.0802217247   11.2415528900
C        -0.9239420941    7.5354537344    9.1689635749
H        -1.0695252209    8.5962290199    9.3320370067
C         0.0474989577   -1.4709634042    6.3711285054
C         0.0983623772   -2.6232781270    5.5599106693
H         0.1348686315   -2.5250456147    4.4791958405
C         0.0938607143   -3.8724462537    6.1220460488
C         0.0506018903   -4.0302493277    7.5403552854
C         0.0068738824   -2.9174910798    8.3468550567
H        -0.0292966443   -3.0298001854    9.4259089476
C        -0.0044953734   -1.6203692402    7.7902703595
C         0.1190512402   -5.2000666138    5.5145116801
C         0.1555939908   -5.6848109926    4.2293655428
H         0.1781853461   -5.0251753539    3.3702542851
C         0.0900674073   -6.1213132709    6.5795033200
C         0.0955514779   -7.5058428480    6.4114034824
C         0.0494976209   -5.4660038778    7.8286033515
C         0.0136256846   -6.2440008422    8.9606061870
H        -0.0197756447   -5.8092089249    9.9517111123
C         0.1626662732   -7.0851907264    4.0305073162
H         0.1911197476   -7.4642503528    3.0164545076
C         0.1340017439   -7.9794743550    5.0767439128
H         0.1399118416   -9.0449434587    4.8797765302
C         0.0195409260   -7.6526511150    8.8207688070
H        -0.0091491786   -8.2580297335    9.7180089225
C         0.0590695819   -8.2801769553    7.5963711272
H         0.0608652769   -9.3621300624    7.5392400969
B        -0.0930577887   -0.3779122843    8.6900025059
C        -0.1160697723   -0.5192552212   10.2640067145
C        -1.3148831413   -0.4659778953   10.9861625835
C        -1.2981062908   -0.5160039854   12.3763066161
H        -2.2300478708   -0.4675535874   12.9301513666
C        -0.0992194290   -0.6036072019   13.0662534071
C         1.0936937960   -0.6786490841   12.3576821607
H         2.0320005714   -0.7501103441   12.8964666296
C         1.0910189652   -0.6477401675   10.9689517449
N        -0.0921174809   -0.6005650519   14.4817047877
C        -0.7075773602    0.4595576835   15.1561364609
C        -1.3665806200    0.2602499263   16.3715360824
H        -1.4041549876   -0.7283284453   16.8110576290
C        -1.9844582877    1.3193923298   17.0164803422
H        -2.4906691839    1.1402123192   17.9566432467
C        -1.9802678574    2.5910716834   16.4598042360
H        -2.4728722451    3.4130627644   16.9618890458
C        -1.3374453420    2.7892675037   15.2455021277
H        -1.3209453485    3.7732238278   14.7939303301
C        -0.7001619476    1.7419295787   14.6013240493
H        -0.1979544745    1.9191765236   13.6590428772
C         0.5371159752   -1.6547368838   15.1534463327
C         1.2621087217   -1.4360329744   16.3263995778
H         1.3427479817   -0.4361183534   16.7329900524
C         1.8882422599   -2.4912451030   16.9699418825
H         2.4463803702   -2.2992192596   17.8775635421
C         1.8255864426   -3.7772742439   16.4507858994
H         2.3240206482   -4.5966522644   16.9515254020
C         1.1174613700   -3.9949875142   15.2767697913
H         1.0554358731   -4.9910840108   14.8569805477
C         0.4716081758   -2.9505412505   14.6358006268
H        -0.0846301091   -3.1403377176   13.7266140334
C         2.3923537740   -0.7290736806   10.2196038139
H         3.2475651623   -0.7318200687   10.8954668551
H         2.4429099780   -1.6369842669    9.6151120349
H         2.5114105521    0.1104980701    9.5316485345
C        -2.6459037635   -0.4100236541   10.2791882542
H        -2.5508213551    0.1401071482    9.3401042642
H        -3.3624344129    0.1463230624   10.8893480647
C        -3.2068213876   -1.8010748592    9.9893559022
H        -2.5389703894   -2.3648360962    9.3378275261
H        -3.3376425439   -2.3725485864   10.9094696792
H        -4.1769514288   -1.7355828527    9.4944360841
134
 Final energy is   -3006.29362020445     
N         0.2252391700   -0.0787496450    0.0048494230
C         0.1815488542   -0.0183911111    1.3757460466
C         1.3725316794    0.0315332892    2.1215268069
H         2.3273648071   -0.0094635669    1.6117887869
C         1.3270470582    0.0441568100    3.4980766211
C         1.2705576072    0.5337662238   -0.7116216327
C         1.6857520036    1.8188919051   -0.3618186676
H         1.1942225521    2.3508202927    0.4424037822
C         2.7067967878    2.4184676873   -1.0767432911
H         3.0235244572    3.4190578679   -0.8162949079
C         3.3089335573    1.7468588464   -2.1335278364
H         4.1065992852    2.2201014129   -2.6901795039
C         2.8848347898    0.4692509453   -2.4811813915
H         3.3577731259   -0.0568269982   -3.2993219583
C         1.8638596439   -0.1423858707   -1.7780843685
H         1.5454818613   -1.1440733887   -2.0362917399
C        -0.7772926874   -0.7615632817   -0.7121777845
C        -1.3283690210   -0.1821818147   -1.8550283296
H        -1.0064930075    0.7974969788   -2.1834418989
C        -2.3169572780   -0.8584158027   -2.5465787532
H        -2.7580123285   -0.4054398820   -3.4241185615
C        -2.7512339240   -2.1055549106   -2.1122690383
H        -3.5245156254   -2.6287045036   -2.6587576886
C        -2.1903219939   -2.6821993807   -0.9797899529
H        -2.5144597330   -3.6593471752   -0.6483664226
C        -1.2021521251   -2.0171837592   -0.2762114078
H        -0.7462160668   -2.4775272473    0.5908725485
C        -1.0616094736   -0.0244558746    2.0375688043
H        -1.9775490136   -0.0152664530    1.4600298488
C        -1.1125667638    0.0055983315    3.4105235795
C         0.0838787232    0.0213177356    4.1706790545
C        -2.4408435551    0.0092897095    4.1061698123
H        -3.2663587009    0.0180669127    3.3955012600
H        -2.5430936208    0.8773874775    4.7586009418
H        -2.5485692625   -0.8733836151    4.7392862901
C         2.6198229289    0.0917975630    4.2639576293
H         2.5043997378   -0.4146327233    5.2240691912
H         3.3895734590   -0.4535741196    3.7130411661
C         3.0810993954    1.5295993567    4.4928334866
H         2.3503145158    2.0875468751    5.0781762978
H         4.0273221440    1.5495463405    5.0335562106
H         3.2229664068    2.0504591053    3.5447607715
B         0.0047933542   -0.0907768907    5.7452789826
C        -0.1217663653    1.1470481304    6.6292858335
C        -0.2141641164    2.4348554250    6.0602875243
H        -0.1825749063    2.5472378738    4.9802554362
C        -0.3536355936    3.5429802794    6.8563779963
C        -0.3967789188    3.4073527430    8.2764154103
C        -0.3000486298    2.1597205449    8.8496596290
H        -0.3365320560    2.0559845068    9.9292981847
C        -0.1717163913    1.0028203929    8.0508356005
C        -0.4982154994    4.9559384840    6.5269653231
C        -0.5446800180    5.6786628975    5.3608107567
H        -0.4543977473    5.2050219865    4.3905217529
C        -0.6280101058    5.6364170230    7.7536699089
C        -0.8090079888    7.0115591861    7.8644061083
C        -0.5719950613    4.7418798147    8.8445421900
C        -0.7002721617    5.2560908523   10.1105143386
H        -0.6693468729    4.6242906357   10.9897187231
C        -0.7216927060    7.0786910935    5.4444220805
H        -0.7597919853    7.6508191603    4.5259031977
C        -0.8513558589    7.7372723719    6.6473151332
H        -0.9891702013    8.8115539468    6.6617849541
C        -0.8825746606    6.6519512354   10.2553911086
H        -0.9845744492    7.0553779695   11.2548122693
C        -0.9377353738    7.5142002308    9.1825789669
H        -1.0826816357    8.5748324069    9.3472165642
C         0.0175500018   -1.4880206338    6.3677799159
C         0.0588083527   -2.6386380933    5.5536428803
H         0.0903347988   -2.5381200624    4.4731336696
C         0.0507614008   -3.8894230087    6.1133278594
C         0.0147727318   -4.0504228629    7.5319634358
C        -0.0208664163   -2.9393367687    8.3413542855
H        -0.0521208771   -3.0548908139    9.4202715500
C        -0.0299896386   -1.6404055182    7.7874432381
C         0.0670393916   -5.2156153607    5.5025022350
C         0.0936350624   -5.6968698455    4.2154966110
H         0.1125448177   -5.0352918441    3.3578002934
C         0.0413578381   -6.1392813518    6.5657378850
C         0.0412534581   -7.5236725414    6.3940945786
C         0.0105969689   -5.4872121884    7.8169778809
C        -0.0205018092   -6.2678866863    8.9476526210
H        -0.0462168411   -5.8358133332    9.9402444539
C         0.0946404325   -7.0971514826    4.0134386105
H         0.1151001424   -7.4734004667    2.9982002383
C         0.0696716696   -7.9942496376    5.0577819045
H         0.0706725129   -9.0592629041    4.8582922424
C        -0.0197569738   -7.6764725897    8.8040912862
H        -0.0444805308   -8.2840560468    9.6999547005
C         0.0098716615   -8.3010343971    7.5774929387
H         0.0079465731   -9.3828366788    7.5173785961
B        -0.1113855136   -0.3996571227    8.6899929010
C        -0.1270350133   -0.5401131753   10.2645357971
C        -1.3220778386   -0.4813958119   10.9929236792
C        -1.2984846499   -0.5220748339   12.3834365500
H        -2.2279141095   -0.4688849112   12.9411421020
C        -0.0960602597   -0.6053957174   13.0681347950
C         1.0930065971   -0.6884355685   12.3537235332
H         2.0345570866   -0.7564270397   12.8873708204
C         1.0832619411   -0.6671946331   10.9645934180
N        -0.0814739613   -0.5871743194   14.4831970839
C        -0.6826111242    0.4860712090   15.1500102668
C        -1.3228715859    0.3076122933   16.3788754956
H        -1.3567438362   -0.6736874915   16.8348329890
C        -1.9264233618    1.3789545924   17.0176587544
H        -2.4178196887    1.2159763577   17.9685897468
C        -1.9263805970    2.6424501921   16.4417940817
H        -2.4077179914    3.4738244460   16.9394006241
C        -1.3019705166    2.8200457095   15.2145271310
H        -1.2883545549    3.7971105633   14.7480585128
C        -0.6789730817    1.7602031133   14.5760433187
H        -0.1906504588    1.9229414612   13.6238165341
C         0.5612090268   -1.6294033904   15.1621023373
C         1.3106502554   -1.3899374248   16.3153622761
H         1.3998067018   -0.3833395667   16.7033442390
C         1.9512744189   -2.4340394909   16.9635178105
H         2.5285832068   -2.2265026024   17.8556047754
C         1.8781463555   -3.7289772110   16.4677047457
H         2.3877861987   -4.5394603820   16.9717158411
C         1.1446154990   -3.9675856520   15.3131667725
H         1.0736963815   -4.9709480295   14.9124968998
C         0.4846018910   -2.9339630790   14.6683999494
H        -0.0913297284   -3.1396818283   13.7749184941
C         2.3814100150   -0.7568341535   10.2104431379
H         3.2393366651   -0.7568773465   10.8828025663
H         2.4273178266   -1.6693747097    9.6125241304
H         2.5002140457    0.0773268234    9.5158250588
C        -2.6570406695   -0.4294760554   10.2929806626
H        -2.5658487728    0.1104981161    9.3476281215
H        -3.3694208271    0.1339879375   10.9013555823
C        -3.2220305600   -1.8225265399   10.0210274015
H        -2.5567668472   -2.3955195806    9.3746912298
H        -3.3512373469   -2.3825057097   10.9483760154
H        -4.1935238870   -1.7608237087    9.5283946416
