134
 Final energy is   -3006.24184373246     
N        -0.2763964328   -0.0186245083    0.2207101536
C        -0.3514818472   -0.1965909731    1.6245484014
C         0.7915169115   -0.0369134695    2.4006439401
H         1.7368513117    0.2017368091    1.9310908015
C         0.7088984336   -0.2012671809    3.7720891527
H         1.5980604413   -0.0884669227    4.3770964121
C        -0.5044214599   -0.5173820754    4.3684357992
H        -0.5632458130   -0.6452654151    5.4406785752
C        -1.6429895321   -0.6643950347    3.5893067799
H        -2.5929311792   -0.8977939885    4.0504907620
C        -1.5740018427   -0.5002816669    2.2168302974
H        -2.4636917296   -0.5970928892    1.6076500834
C         0.3818527835    1.1420051780   -0.2586285187
C         1.3638546136    1.0227048161   -1.2365329478
H         1.6298107762    0.0461661635   -1.6207608259
C         1.9992816433    2.1598090041   -1.7054195072
H         2.7636931844    2.0686181935   -2.4648828142
C         1.6624516191    3.4066126195   -1.1984449967
H         2.1590941286    4.2931198564   -1.5685607123
C         0.6891422213    3.5161519953   -0.2145448012
H         0.4210049974    4.4873774136    0.1781884547
C         0.0471361244    2.3866389235    0.2619074719
H        -0.7195957318    2.4683782807    1.0211754115
C        -0.8535700751   -0.9046687870   -0.6384068825
C        -1.0695286868   -2.2456387947   -0.2433414822
H        -0.6995129865   -2.5851634948    0.7159958858
C        -1.7036537437   -3.1282892647   -1.0794430061
C        -1.2479747443   -0.4938357732   -1.9341702306
H        -1.0957780607    0.5324150597   -2.2417349028
C        -1.8910648560   -1.3650356256   -2.7731391038
C        -2.1840463612   -2.6952152000   -2.3475059320
C        -2.3488643164   -0.9186044643   -4.1254541880
H        -1.9899132449    0.0817086752   -4.3647370955
H        -3.4384289670   -0.9183705432   -4.1844674834
H        -1.9993660393   -1.6081211972   -4.8955626563
C        -1.9312036609   -4.5436566089   -0.6298087330
H        -1.9458678348   -5.2049105627   -1.4972980511
H        -1.0958733442   -4.8639191945   -0.0018642699
C        -3.2410472731   -4.6900815915    0.1448700128
H        -4.0959942524   -4.4100393954   -0.4688537243
H        -3.3817548464   -5.7240661273    0.4584763271
H        -3.2442776184   -4.0645961201    1.0389022521
B        -3.1048010838   -3.6156059702   -3.2404396508
C        -4.6161721833   -3.4357427635   -3.1105046205
C        -5.1720617978   -2.4878053174   -2.2207117313
H        -4.5184761042   -1.8670874188   -1.6140800098
C        -6.5296246252   -2.3462623631   -2.1061144747
C        -7.3582473215   -1.4706628740   -1.2766179386
C        -7.1228689345   -0.4934541711   -0.3433368200
H        -6.1176873171   -0.2005219779   -0.0654306251
C        -8.2281159751    0.1443247193    0.2652191908
H        -8.0396750365    0.9157691598    1.0012574107
C        -9.5302540379   -0.1763187647   -0.0418475242
H       -10.3447721817    0.3400423780    0.4515440102
C        -8.6965573799   -1.7883434498   -1.5835936806
C        -9.8051867406   -1.1792022875   -1.0016073652
C        -8.7736267657   -2.8067819388   -2.5559192549
C       -10.0152668301   -3.2304834702   -2.9604271812
H       -10.1379132522   -4.0095278972   -3.7025470469
C       -11.1576703081   -2.6283912370   -2.3855993613
H       -12.1352593863   -2.9655385401   -2.7067472713
C       -11.0738530345   -1.6354570903   -1.4375880156
H       -11.9778287254   -1.2040773128   -1.0251510242
C        -7.3996089869   -3.1619067684   -2.8893632275
C        -6.8803341479   -4.0849761854   -3.7646976305
H        -7.5419063211   -4.7020876703   -4.3642884139
C        -5.4891008684   -4.2457021755   -3.8994193295
C        -2.5106370582   -4.6298694875   -4.2123069790
C        -1.1124097245   -4.7857688119   -4.3564121683
H        -0.4389717910   -4.1691656207   -3.7671620349
C        -0.5971390401   -5.7063230174   -5.2329815885
C         0.7765155544   -6.0740359709   -5.5858866254
C         2.0295524411   -5.6699705271   -5.2026227069
H         2.1773755103   -4.8948806064   -4.4608224691
C         3.1531716211   -6.2883606097   -5.7983875180
H         4.1411013933   -5.9671137485   -5.4933723730
C         3.0401326917   -7.2781679275   -6.7471214409
H         3.9314996185   -7.7207487539   -7.1748486928
C         0.6753467095   -7.0901479745   -6.5577979533
C         1.7604017569   -7.7166238896   -7.1631990356
C        -0.6711233404   -7.3935610010   -6.8447706821
C        -0.9417915891   -8.3636297400   -7.7766314493
H        -1.9570123732   -8.6365141971   -8.0372378119
C         0.1421565339   -9.0152752259   -8.4070445809
H        -0.0719835997   -9.7800300059   -9.1429793367
C         1.4535197194   -8.7142661275   -8.1214588463
H         2.2511976361   -9.2407744989   -8.6310584971
C        -1.4787979733   -6.5180914149   -6.0063441782
C        -2.8403299704   -6.3801428124   -5.8824851049
H        -3.5090610842   -6.9972880577   -6.4741327860
C        -3.3908003180   -5.4377476172   -4.9959957609
B        -4.9182859951   -5.2786984243   -4.8846094737
C        -5.8775249009   -6.1692392395   -5.7741874192
C        -6.3265875021   -5.7317050717   -7.0250637456
C        -7.1309595765   -6.5486513080   -7.8127913571
H        -7.4551001007   -6.2014454777   -8.7882432569
C        -7.5252015953   -7.8006265306   -7.3685819672
C        -7.1062151271   -8.2331685706   -6.1151325783
H        -7.4214694287   -9.2052130229   -5.7529934116
C        -6.2853337505   -7.4376318700   -5.3293848384
N        -8.3452014986   -8.6227341486   -8.1748082146
C        -9.4583115317   -8.0665782302   -8.8196546145
C        -9.7762711146   -8.4232682130  -10.1305411050
H        -9.1545435945   -9.1344520953  -10.6589283553
C       -10.8804734504   -7.8714305305  -10.7578830941
H       -11.1103151677   -8.1607901997  -11.7754251445
C       -11.6750556834   -6.9416209428  -10.1035085582
H       -12.5318363961   -6.5062548104  -10.6001270358
C       -11.3537406525   -6.5760919815   -8.8042880987
H       -11.9652226288   -5.8547459626   -8.2775750540
C       -10.2634889326   -7.1370553132   -8.1615053799
H       -10.0265051446   -6.8525431380   -7.1447735719
C        -8.0293620860   -9.9768647398   -8.3440235869
C        -9.0375754718  -10.9409790686   -8.4041504215
H       -10.0736224561  -10.6408790206   -8.3145087127
C        -8.7207326196  -12.2777320218   -8.5752601590
H        -9.5182950820  -13.0084760406   -8.6189666436
C        -7.3982088323  -12.6861393799   -8.6678032824
H        -7.1541045180  -13.7326792996   -8.7919258788
C        -6.3937078806  -11.7323862979   -8.5957639595
H        -5.3561341974  -12.0320446759   -8.6692054039
C        -6.7006355051  -10.3903884252   -8.4457684970
H        -5.9074026173   -9.6558821493   -8.4028645283
C        -5.8433382195   -7.9379448782   -3.9827171309
H        -6.2527556204   -8.9249712882   -3.7676864713
H        -4.7553999611   -8.0080792607   -3.9233675566
H        -6.1602821963   -7.2629009633   -3.1853389432
C        -5.9046535985   -4.4002222617   -7.5913864213
H        -6.7595283975   -3.9285725554   -8.0845209237
H        -5.6081249697   -3.7243355109   -6.7864388862
C        -4.7583833861   -4.5367241827   -8.5908428771
H        -3.8725710342   -4.9574310156   -8.1150265616
H        -5.0348559956   -5.1921062583   -9.4179112789
H        -4.4836218563   -3.5678549963   -9.0103115049
134
 Final energy is   -3006.26449646634     
N        -0.2129308865   -0.0210856205    0.1972229313
C        -0.2625345118   -0.1743382498    1.6026718671
C         0.9004054890   -0.0206395033    2.3522525144
H         1.8407076287    0.1930542404    1.8609523050
C         0.8431637137   -0.1648143030    3.7269939380
H         1.7464278299   -0.0590278288    4.3120829923
C        -0.3635977724   -0.4519027791    4.3525175539
H        -0.4021780106   -0.5626757666    5.4277001212
C        -1.5214349555   -0.5909004047    3.5996487595
H        -2.4654509148   -0.7993060216    4.0843913543
C        -1.4786215113   -0.4495887488    2.2237504524
H        -2.3835468179   -0.5354883290    1.6358368983
C         0.4844330967    1.0975747254   -0.3206084404
C         1.4173415733    0.9148826221   -1.3371564792
H         1.6211400313   -0.0786854301   -1.7154230961
C         2.0894995477    2.0126368206   -1.8461372475
H         2.8180556068    1.8740196553   -2.6332323477
C         1.8351746673    3.2813115173   -1.3434444033
H         2.3599809429    4.1370103889   -1.7461252867
C         0.9095484286    3.4531474718   -0.3220279430
H         0.7062197577    4.4418158418    0.0661328065
C         0.2330975745    2.3636948117    0.1977884273
H        -0.4979844998    2.4939810438    0.9851473187
C        -0.8429950720   -0.8989145166   -0.6352226386
C        -1.0765932814   -2.2306310271   -0.2258985411
H        -0.6843329491   -2.5748790774    0.7230416490
C        -1.7495918205   -3.1056125310   -1.0434123478
C        -1.2707170604   -0.4847037698   -1.9177624815
H        -1.1112499054    0.5380312172   -2.2338035685
C        -1.9517503737   -1.3498408157   -2.7357535424
C        -2.2428434315   -2.6741587257   -2.3029984124
C        -2.4361189583   -0.8937410998   -4.0771821382
H        -2.0956473409    0.1150441434   -4.3071213437
H        -3.5259879039   -0.9074300748   -4.1241145602
H        -2.0838494099   -1.5641496229   -4.8628265026
C        -1.9884329379   -4.5142824924   -0.5753822113
H        -2.0238966004   -5.1859652268   -1.4344705932
H        -1.1472816008   -4.8390686656    0.0420138691
C        -3.2856060857   -4.6386384826    0.2226591411
H        -4.1481314255   -4.3571614247   -0.3800089957
H        -3.4324729844   -5.6671081493    0.5517029671
H        -3.2673428818   -4.0014855473    1.1082403646
B        -3.1592398167   -3.6039578480   -3.1974687904
C        -4.6755992791   -3.4497485504   -3.0759114530
C        -5.2479146934   -2.5154682889   -2.1829094987
H        -4.6044405216   -1.8932591619   -1.5677466985
C        -6.6085624162   -2.3885720138   -2.0770263390
C        -7.4523549142   -1.5267441605   -1.2485152046
C        -7.2338431136   -0.5532193508   -0.3062661240
H        -6.2341480150   -0.2535898471   -0.0161427755
C        -8.3508902616    0.0711644918    0.2959384922
H        -8.1753300013    0.8391471457    1.0387934578
C        -9.6480272663   -0.2584439425   -0.0251428654
H       -10.4716972779    0.2477359009    0.4637502852
C        -8.7854951521   -1.8543220284   -1.5697173512
C        -9.9050312124   -1.2581778844   -0.9940267788
C        -8.8454081156   -2.8669531710   -2.5496173761
C       -10.0799625032   -3.2991545349   -2.9687024399
H       -10.1894112688   -4.0742323931   -3.7172682189
C       -11.2329606303   -2.7103131182   -2.4002239859
H       -12.2047177597   -3.0537025233   -2.7325872765
C       -11.1661484819   -1.7223935759   -1.4445997861
H       -12.0774665774   -1.3011794882   -1.0375651731
C        -7.4648286099   -3.2069864662   -2.8735983064
C        -6.9297852316   -4.1177834257   -3.7521276791
H        -7.5827048879   -4.7360582017   -4.3600589781
C        -5.5350923809   -4.2629373307   -3.8782787238
C        -2.5520686597   -4.6074775748   -4.1753421402
C        -1.1515280704   -4.7481062969   -4.3100573785
H        -0.4902712117   -4.1277287200   -3.7116141785
C        -0.6187984925   -5.6591322474   -5.1874653747
C         0.7611338304   -6.0116043081   -5.5304881788
C         2.0076072858   -5.5965918169   -5.1347969440
H         2.1420747680   -4.8230470864   -4.3887813283
C         3.1422513174   -6.2023854565   -5.7237516441
H         4.1243337814   -5.8725566103   -5.4089139197
C         3.0473364642   -7.1902520399   -6.6774805036
H         3.9465782919   -7.6227840310   -7.0991391062
C         0.6782041802   -7.0252724630   -6.5075397915
C         1.7747546267   -7.6393855318   -7.1059926789
C        -0.6629557914   -7.3411955412   -6.8073054153
C        -0.9166034148   -8.3112095486   -7.7451137593
H        -1.9268701121   -8.5935881302   -8.0153353728
C         0.1794214588   -8.9502074472   -8.3684084656
H        -0.0210313996   -9.7147190572   -9.1085814215
C         1.4859777022   -8.6371223616   -8.0704321812
H         2.2933881175   -9.1540851642   -8.5746663368
C        -1.4862402513   -6.4769845511   -5.9720070356
C        -2.8501077025   -6.3542021196   -5.8583426574
H        -3.5058349570   -6.9769979631   -6.4586889130
C        -3.4179579665   -5.4219432245   -4.9707535166
B        -4.9470380103   -5.2808807384   -4.8684013727
C        -5.8935935323   -6.1733438030   -5.7719283450
C        -6.3289963344   -5.7351103411   -7.0275637988
C        -7.1265152034   -6.5505697379   -7.8248324672
H        -7.4398672464   -6.2009222302   -8.8031049994
C        -7.5266167311   -7.8028118540   -7.3861279713
C        -7.1199994939   -8.2372209082   -6.1289375930
H        -7.4389684048   -9.2095408741   -5.7703263653
C        -6.3067971471   -7.4426541281   -5.3333807412
N        -8.3400034130   -8.6231818111   -8.2011255383
C        -9.4457907695   -8.0645937204   -8.8574337402
C        -9.7454212756   -8.4138386244  -10.1748702410
H        -9.1161169490   -9.1206923974  -10.7004057391
C       -10.8423069814   -7.8595443841  -10.8140294635
H       -11.0579085888   -8.1430352732  -11.8364466643
C       -11.6472705132   -6.9344727829  -10.1644614899
H       -12.4979023364   -6.4970594201  -10.6700779512
C       -11.3441655987   -6.5764865838   -8.8581633757
H       -11.9637195055   -5.8592869638   -8.3350262965
C       -10.2613892520   -7.1403427343   -8.2041173059
H       -10.0402072520   -6.8613540253   -7.1821241871
C        -8.0225009857   -9.9770665246   -8.3721155565
C        -9.0307689867  -10.9410547196   -8.4397483744
H       -10.0677509754  -10.6422653247   -8.3547003739
C        -8.7131918409  -12.2780107145   -8.6122212893
H        -9.5107398596  -13.0085629388   -8.6616526957
C        -7.3896312517  -12.6863964031   -8.6985891722
H        -7.1448908531  -13.7328333789   -8.8235775754
C        -6.3849900074  -11.7325306142   -8.6194642883
H        -5.3469004766  -12.0318715740   -8.6882800875
C        -6.6929695406  -10.3903070047   -8.4680139364
H        -5.8986526574   -9.6570148775   -8.4203230776
C        -5.8801619935   -7.9462404383   -3.9828379373
H        -6.2904119634   -8.9347045259   -3.7758599653
H        -4.7928975591   -8.0143688401   -3.9101918698
H        -6.2074690446   -7.2743138399   -3.1869772490
C        -5.9019260710   -4.4027179857   -7.5885607515
H        -6.7566830418   -3.9215836369   -8.0726723536
H        -5.5937331163   -3.7344480520   -6.7816654460
C        -4.7636938202   -4.5401234932   -8.5971498651
H        -3.8797613059   -4.9765755404   -8.1317466966
H        -5.0525701254   -5.1819186392   -9.4307923989
H        -4.4806409617   -3.5690810881   -9.0059346736
134
 Final energy is   -3006.26932374144     
N        -0.1616368300   -0.0709818229    0.2052730054
C        -0.2154310674   -0.2094796027    1.6112588967
C         0.9555946489   -0.1061427018    2.3577592597
H         1.9040988395    0.0592337057    1.8636433765
C         0.8944591704   -0.2393692555    3.7332845800
H         1.8029952407   -0.1734222732    4.3160646373
C        -0.3233542817   -0.4656793359    4.3627352407
H        -0.3647399005   -0.5684069083    5.4386351864
C        -1.4883314465   -0.5544467058    3.6129718654
H        -2.4399600141   -0.7153724624    4.1009009306
C        -1.4421310724   -0.4234567798    2.2362585861
H        -2.3515098300   -0.4694300020    1.6506960013
C         0.6029418218    0.9945488133   -0.3269106143
C         1.5086373938    0.7431109939   -1.3541321011
H         1.6401134244   -0.2636618661   -1.7293590894
C         2.2496810889    1.7891926330   -1.8754778581
H         2.9576556414    1.5970568624   -2.6700919672
C         2.0919650753    3.0743245839   -1.3745844492
H         2.6714675044    3.8892822519   -1.7867480176
C         1.1930181840    3.3146980452   -0.3430089417
H         1.0648358792    4.3164459906    0.0436459508
C         0.4477058680    2.2774524833    0.1891225623
H        -0.2632702383    2.4621257232    0.9840535539
C        -0.8380224483   -0.9241300730   -0.6183500979
C        -1.1274751173   -2.2416020340   -0.2019306263
H        -0.7529450053   -2.5968468892    0.7501601205
C        -1.8283148610   -3.0951208333   -1.0198993542
C        -1.2510793929   -0.4978107495   -1.9009204362
H        -1.0538586085    0.5174911123   -2.2198568541
C        -1.9598441952   -1.3412141582   -2.7189852734
C        -2.2929568126   -2.6543335750   -2.2862225797
C        -2.4202119464   -0.8710972812   -4.0645455538
H        -2.0489526906    0.1276788960   -4.2903681547
H        -3.5094717928   -0.8532498292   -4.1224095324
H        -2.0790776185   -1.5500265243   -4.8478137054
C        -2.1204375847   -4.4918620772   -0.5456476633
H        -2.1604742535   -5.1700487063   -1.3996004154
H        -1.3016087606   -4.8377516622    0.0899501022
C        -3.4349883276   -4.5692817489    0.2291068714
H        -4.2778784019   -4.2707212344   -0.3928546907
H        -3.6176068059   -5.5889228429    0.5677565168
H        -3.4145576989   -3.9216910074    1.1070041624
B        -3.2068053697   -3.5702928931   -3.1983004953
C        -4.7237455956   -3.3999325847   -3.1145542690
C        -5.3050523650   -2.4471037728   -2.2476491423
H        -4.6676153229   -1.8201879335   -1.6310848079
C        -6.6664795602   -2.3067819518   -2.1705261145
C        -7.5192498145   -1.4234938580   -1.3744212439
C        -7.3114267832   -0.4342187194   -0.4460565556
H        -6.3153357911   -0.1363347765   -0.1421526091
C        -8.4352744414    0.2090455631    0.1231314426
H        -8.2679006048    0.9893232251    0.8549672756
C        -9.7286655177   -0.1173383765   -0.2163138139
H       -10.5577313969    0.4034653055    0.2474438894
C        -8.8486289393   -1.7476889938   -1.7147198030
C        -9.9745536827   -1.1333029035   -1.1713329345
C        -8.8978286338   -2.7786835278   -2.6758528333
C       -10.1273788356   -3.2110800273   -3.1094346517
H       -10.2282714571   -3.9997755769   -3.8449376539
C       -11.2866174509   -2.6034996740   -2.5741199746
H       -12.2544828907   -2.9466604622   -2.9178938855
C       -11.2303915982   -1.5976087107   -1.6365118565
H       -12.1460487754   -1.1625189181   -1.2545273129
C        -7.5137844553   -3.1340238064   -2.9677627365
C        -6.9699369513   -4.0640830088   -3.8199751686
H        -7.6179543599   -4.6889035908   -4.4264972773
C        -5.5736673538   -4.2186215889   -3.9222036979
C        -2.5885174318   -4.5840556020   -4.1591962531
C        -1.1862938059   -4.7347847766   -4.2626279230
H        -0.5346938206   -4.1192378066   -3.6489905053
C        -0.6400140632   -5.6498411083   -5.1273689028
C         0.7443083436   -6.0150820440   -5.4371524126
C         1.9847921094   -5.6119625031   -5.0110622005
H         2.1085010396   -4.8388276635   -4.2627434088
C         3.1275793144   -6.2306940301   -5.5703796587
H         4.1047846650   -5.9103224226   -5.2315063220
C         3.0465084393   -7.2198892070   -6.5241913477
H         3.9514995381   -7.6628568149   -6.9220591689
C         0.6754531980   -7.0296524598   -6.4146116013
C         1.7803430229   -7.6569704833   -6.9835439912
C        -0.6609735737   -7.3335070744   -6.7463392607
C        -0.9012398694   -8.3050673650   -7.6861823099
H        -1.9073963034   -8.5796658629   -7.9789951835
C         0.2034793525   -8.9572835585   -8.2799594419
H         0.0136878983   -9.7232578625   -9.0214409097
C         1.5055092638   -8.6555160394   -7.9513248720
H         2.3199550922   -9.1826235372   -8.4332626875
C        -1.4961136801   -6.4601496014   -5.9321982972
C        -2.8609473521   -6.3272075473   -5.8496969397
H        -3.5048498212   -6.9444213161   -6.4685454303
C        -3.4432255401   -5.3943420745   -4.9710676024
B        -4.9740487168   -5.2495722895   -4.8927323227
C        -5.9105774338   -6.1589832758   -5.7913050327
C        -6.4506100932   -5.6957665337   -6.9989137668
C        -7.2391178778   -6.5284372699   -7.7868264680
H        -7.6376454798   -6.1610433676   -8.7266346853
C        -7.5229163548   -7.8247441618   -7.3873642285
C        -7.0137777345   -8.2862385926   -6.1795337181
H        -7.2457961851   -9.2941606079   -5.8535690662
C        -6.2118116687   -7.4721903376   -5.3912583189
N        -8.3241071214   -8.6658530982   -8.1949595946
C        -9.5468786126   -8.1894072499   -8.6859439902
C        -9.9572036319   -8.4827488184   -9.9875710252
H        -9.3208709985   -9.0754808925  -10.6322793138
C       -11.1752823707   -8.0213689067  -10.4586832744
H       -11.4763077324   -8.2614435844  -11.4706279209
C       -11.9963491814   -7.2425394957   -9.6553858656
H       -12.9440775505   -6.8785373034  -10.0294998202
C       -11.5828851917   -6.9349676198   -8.3667404326
H       -12.2120386547   -6.3311903568   -7.7251710693
C       -10.3753071938   -7.4079835556   -7.8798003654
H       -10.0711319774   -7.1734889066   -6.8679089952
C        -7.8793035019   -9.9554339772   -8.5128818692
C        -8.7770124492  -11.0231594552   -8.5847232612
H        -9.8283303658  -10.8571291500   -8.3873179348
C        -8.3308098393  -12.2942910379   -8.9059815028
H        -9.0439815179  -13.1074058660   -8.9564113438
C        -6.9840712173  -12.5346321397   -9.1408983696
H        -6.6381951450  -13.5306179089   -9.3836587629
C        -6.0879273950  -11.4784578442   -9.0563272389
H        -5.0341588273  -11.6458897382   -9.2395083290
C        -6.5267511077  -10.1993790111   -8.7545602662
H        -5.8178377953   -9.3830971861   -8.7057122731
C        -5.6761853789   -8.0103938780   -4.0935066779
H        -6.0683459327   -9.0053055685   -3.8821823720
H        -4.5869101376   -8.0801729910   -4.1117325022
H        -5.9363710504   -7.3625380219   -3.2543911090
C        -6.1355862336   -4.3183531221   -7.5210877780
H        -6.9930495215   -3.9359017251   -8.0815485851
H        -5.9795005354   -3.6261137927   -6.6907980471
C        -4.9027506782   -4.3160483823   -8.4219353918
H        -4.0224682692   -4.6592981698   -7.8784819543
H        -5.0408942819   -4.9745581274   -9.2810616081
H        -4.6928914897   -3.3139197953   -8.7987581192
134
 Final energy is   -3006.28325781016     
N        -0.1423875043   -0.0772195920    0.2075444379
C        -0.2016071106   -0.2075044316    1.6121318930
C         0.9690590705   -0.1098236460    2.3616533177
H         1.9207660689    0.0438565309    1.8699339255
C         0.9027440619   -0.2380660100    3.7371696109
H         1.8101027132   -0.1778102754    4.3224126214
C        -0.3192489600   -0.4527348223    4.3637250408
H        -0.3645362078   -0.5509036634    5.4399523885
C        -1.4833448923   -0.5355841866    3.6109942351
H        -2.4375518728   -0.6862877467    4.0971755126
C        -1.4325598255   -0.4109527427    2.2340837671
H        -2.3409827446   -0.4495706259    1.6465545202
C         0.6459443306    0.9643333330   -0.3321150141
C         1.5313285323    0.6869073901   -1.3714937802
H         1.6304534669   -0.3230502521   -1.7482051045
C         2.2979202953    1.7109951712   -1.8989229505
H         2.9915487717    1.4990138087   -2.7011315726
C         2.1850007458    2.9996602991   -1.3937531654
H         2.7846325494    3.7973411854   -1.8110568956
C         1.3051973578    3.2659102946   -0.3514416932
H         1.2115116056    4.2705598889    0.0375869288
C         0.5352204608    2.2510770144    0.1881470082
H        -0.1625397728    2.4570809214    0.9895609825
C        -0.8356804117   -0.9238123794   -0.6128099533
C        -1.1311764974   -2.2381337726   -0.1970593330
H        -0.7520035323   -2.5993335965    0.7510208026
C        -1.8436684682   -3.0855878530   -1.0141010922
C        -1.2566362379   -0.4903520698   -1.8885982342
H        -1.0568110481    0.5251027806   -2.2057618472
C        -1.9762178305   -1.3288129236   -2.7048223219
C        -2.3090255715   -2.6407765968   -2.2760161827
C        -2.4416561983   -0.8483524092   -4.0460241428
H        -2.0762478190    0.1546717645   -4.2620149505
H        -3.5310105438   -0.8343768962   -4.1030653918
H        -2.0961982392   -1.5156610957   -4.8374225824
C        -2.1414944669   -4.4809165909   -0.5373037584
H        -2.1922545066   -5.1597336381   -1.3904103843
H        -1.3200521890   -4.8322722707    0.0916660454
C        -3.4492955085   -4.5509174850    0.2488981948
H        -4.2953980138   -4.2445113759   -0.3651566757
H        -3.6366652907   -5.5696029925    0.5882989862
H        -3.4163509928   -3.9043505248    1.1271081563
B        -3.2204230905   -3.5570320777   -3.1925038807
C        -4.7400148579   -3.3972636310   -3.1125823388
C        -5.3267992935   -2.4482182669   -2.2455112824
H        -4.6928852105   -1.8199871523   -1.6270102991
C        -6.6894797070   -2.3125611959   -2.1717446039
C        -7.5471991079   -1.4324677412   -1.3775216021
C        -7.3446316398   -0.4433711982   -0.4471907640
H        -6.3504889229   -0.1436624920   -0.1387877194
C        -8.4725691490    0.1969199558    0.1182151812
H        -8.3092787055    0.9767138609    0.8514445020
C        -9.7644104801   -0.1319066485   -0.2263463880
H       -10.5964604479    0.3866257898    0.2346245670
C        -8.8747975122   -1.7597726460   -1.7229791316
C       -10.0043477140   -1.1480983570   -1.1832186864
C        -8.9186151141   -2.7903114410   -2.6851150953
C       -10.1458430201   -3.2256587273   -3.1235499220
H       -10.2426954897   -4.0142005463   -3.8599151953
C       -11.3085657405   -2.6207731276   -2.5918825774
H       -12.2744445081   -2.9659110402   -2.9392947998
C       -11.2577351836   -1.6149077278   -1.6532804121
H       -12.1756059825   -1.1818737758   -1.2741924503
C        -7.5322341287   -3.1416192292   -2.9727878601
C        -6.9830291669   -4.0688164754   -3.8247461720
H        -7.6285996165   -4.6941497091   -4.4334719888
C        -5.5853037665   -4.2184034254   -3.9238153528
C        -2.5987411550   -4.5669586679   -4.1574662123
C        -1.1957017519   -4.7104465632   -4.2590489005
H        -0.5486141142   -4.0924315739   -3.6434325687
C        -0.6430861997   -5.6221765669   -5.1242035722
C         0.7434584142   -5.9807555134   -5.4312479259
C         1.9813873111   -5.5716344619   -5.0019911979
H         2.1000625092   -4.7977821609   -4.2535849258
C         3.1283232008   -6.1856939363   -5.5588406070
H         4.1031410709   -5.8606569779   -5.2175948952
C         3.0541166248   -7.1757874810   -6.5128885389
H         3.9619529126   -7.6149279930   -6.9085421061
C         0.6812637811   -6.9958081370   -6.4091098169
C         1.7905968025   -7.6185071876   -6.9752897110
C        -0.6530704156   -7.3060043432   -6.7442612147
C        -0.8869688321   -8.2790582232   -7.6848128776
H        -1.8910930781   -8.5585681461   -7.9802837339
C         0.2224556261   -8.9265600827   -8.2757060865
H         0.0379098807   -9.6935971705   -9.0174384054
C         1.5227043971   -8.6187380395   -7.9436893518
H         2.3409001071   -9.1422269849   -8.4232777931
C        -1.4940638952   -6.4364818200   -5.9314788507
C        -2.8597567557   -6.3104593195   -5.8512119954
H        -3.4984866367   -6.9313377684   -6.4718850772
C        -3.4484859892   -5.3811917384   -4.9720535562
B        -4.9798570923   -5.2454710124   -4.8947570812
C        -5.9124425140   -6.1593695288   -5.7938576054
C        -6.4555677750   -5.6982129579   -7.0010807055
C        -7.2437673583   -6.5328615107   -7.7877429994
H        -7.6438256283   -6.1659402322   -8.7271652615
C        -7.5241035150   -7.8299516658   -7.3877249624
C        -7.0110196862   -8.2901449490   -6.1807418389
H        -7.2399935636   -9.2983560280   -5.8532485257
C        -6.2094098919   -7.4738946798   -5.3938797819
N        -8.3254107972   -8.6726330555   -8.1931750152
C        -9.5494945755   -8.1975403608   -8.6835994430
C        -9.9578817685   -8.4875816994   -9.9866816496
H        -9.3200683672   -9.0764215944  -10.6336317092
C       -11.1769885565   -8.0274646101  -10.4574415758
H       -11.4766652490   -8.2648806537  -11.4704416404
C       -12.0007133987   -7.2531838199   -9.6518421577
H       -12.9490813895   -6.8902272076  -10.0255123231
C       -11.5892824599   -6.9491429622   -8.3613521311
H       -12.2206190252   -6.3494904711   -7.7179985254
C       -10.3806577117   -7.4212831707   -7.8750475247
H       -10.0794292548   -7.1899535498   -6.8614323511
C        -7.8798526832   -9.9622954534   -8.5111548979
C        -8.7768815080  -11.0310945462   -8.5783342274
H        -9.8278521431  -10.8667822224   -8.3772585127
C        -8.3304958692  -12.3025294788   -8.8996270204
H        -9.0430264041  -13.1164616704   -8.9464424607
C        -6.9839959092  -12.5416900485   -9.1392642197
H        -6.6379590863  -13.5376621480   -9.3820889686
C        -6.0884087299  -11.4842145267   -9.0597151322
H        -5.0351590480  -11.6505229308   -9.2471005998
C        -6.5277963196  -10.2048880268   -8.7579796036
H        -5.8187191713   -9.3883227119   -8.7142767819
C        -5.6695595304   -8.0125606474   -4.0979468692
H        -6.0615673042   -9.0072313028   -3.8852983542
H        -4.5803926934   -8.0833365403   -4.1205153067
H        -5.9255371474   -7.3648561257   -3.2573952715
C        -6.1441919990   -4.3208532529   -7.5257052590
H        -7.0065873966   -3.9363206481   -8.0770381690
H        -5.9769179718   -3.6295247758   -6.6969069033
C        -4.9213094373   -4.3207100582   -8.4401930572
H        -4.0368051477   -4.6702236361   -7.9073738880
H        -5.0719253939   -4.9754195473   -9.3001746618
H        -4.7110771463   -3.3181763006   -8.8156261838
134
 Final energy is   -3006.29445908012     
N        -0.1367923610   -0.0768438422    0.2120973255
C        -0.2040479378   -0.2025764218    1.6150880045
C         0.9628730431   -0.0996539858    2.3710105818
H         1.9172788488    0.0529995776    1.8842667804
C         0.8890528206   -0.2251468808    3.7462122661
H         1.7929889946   -0.1617964541    4.3364141797
C        -0.3363669426   -0.4415320865    4.3662958901
H        -0.3874494920   -0.5369580047    5.4425572822
C        -1.4964724471   -0.5295122382    3.6072606506
H        -2.4529975171   -0.6805095028    4.0888012364
C        -1.4385832446   -0.4088108838    2.2304926450
H        -2.3438676322   -0.4491974606    1.6383232870
C         0.6605579357    0.9552319617   -0.3287950576
C         1.5389676015    0.6689813443   -1.3724813813
H         1.6274521246   -0.3418110014   -1.7495526931
C         2.3150675088    1.6852807839   -1.9006633903
H         3.0045358948    1.4666923771   -2.7047014343
C         2.2176172852    2.9748174782   -1.3934627384
H         2.8248084566    3.7663454532   -1.8116925664
C         1.3437776165    3.2499607360   -0.3479872760
H         1.2617699027    4.2553609617    0.0417721175
C         0.5649889285    2.2430852864    0.1934858589
H        -0.1295212282    2.4565301852    0.9957536527
C        -0.8339680201   -0.9225478905   -0.6093832986
C        -1.1271967527   -2.2364912838   -0.1961023481
H        -0.7447384883   -2.6008929792    0.7494563245
C        -1.8433996311   -3.0820664493   -1.0140212621
C        -1.2591660472   -0.4853423448   -1.8810044963
H        -1.0618265069    0.5313690597   -2.1958201476
C        -1.9808315396   -1.3231548804   -2.6979656756
C        -2.3101268215   -2.6353372437   -2.2727131168
C        -2.4486703245   -0.8365361657   -4.0369129687
H        -2.0847535992    0.1680845658   -4.2476323886
H        -3.5381311348   -0.8221169092   -4.0928916476
H        -2.1019489304   -1.4977372402   -4.8329619980
C        -2.1407832708   -4.4775834341   -0.5361029919
H        -2.1979860376   -5.1563035573   -1.3891007012
H        -1.3160664930   -4.8308746803    0.0872736907
C        -3.4427317576   -4.5463562793    0.2595395840
H        -4.2922770092   -4.2345349282   -0.3473249471
H        -3.6310592862   -5.5651939083    0.5984196163
H        -3.4011272586   -3.9017625926    1.1387219029
B        -3.2201100917   -3.5522647112   -3.1911820528
C        -4.7416002715   -3.3989710830   -3.1124931134
C        -5.3303713299   -2.4522374716   -2.2442463240
H        -4.6978563656   -1.8240698283   -1.6245373658
C        -6.6937531256   -2.3185196124   -2.1715692314
C        -7.5531567860   -1.4405735039   -1.3768324990
C        -7.3519756828   -0.4531783351   -0.4439619690
H        -6.3585253487   -0.1537645851   -0.1331002089
C        -8.4815615561    0.1852441628    0.1211014546
H        -8.3194437778    0.9633735658    0.8562886712
C        -9.7730764424   -0.1435399885   -0.2260000111
H       -10.6061741610    0.3734436674    0.2348047736
C        -8.8801709363   -1.7683284872   -1.7249229510
C       -10.0110384518   -1.1582458820   -1.1853964825
C        -8.9225097633   -2.7973892358   -2.6889248415
C       -10.1490592109   -3.2330767492   -3.1298640895
H       -10.2448836740   -4.0205366413   -3.8676417831
C       -11.3130101069   -2.6296386945   -2.5984547531
H       -12.2782521202   -2.9747769241   -2.9476073615
C       -11.2637502135   -1.6250352750   -1.6579002661
H       -12.1822198639   -1.1930561432   -1.2790303304
C        -7.5350671312   -3.1472176493   -2.9753078777
C        -6.9839609270   -4.0727394779   -3.8279684710
H        -7.6291592548   -4.6971717097   -4.4381373397
C        -5.5853659711   -4.2209103586   -3.9255882589
C        -2.5982264034   -4.5607836846   -4.1593258509
C        -1.1948012720   -4.7001221628   -4.2616231099
H        -0.5493738139   -4.0802749452   -3.6463433920
C        -0.6398324128   -5.6106329090   -5.1273211285
C         0.7476242462   -5.9651336388   -5.4348416721
C         1.9846057274   -5.5513877021   -5.0062363235
H         2.1013511037   -4.7763932418   -4.2587145041
C         3.1332536190   -6.1625903945   -5.5634905637
H         4.1070624898   -5.8339236630   -5.2229614538
C         3.0617817778   -7.1540422435   -6.5168143043
H         3.9706938977   -7.5907635087   -6.9126590622
C         0.6878475626   -6.9812662804   -6.4120531564
C         1.7991137134   -7.6010871764   -6.9783069968
C        -0.6456813981   -7.2960229674   -6.7468552172
C        -0.8772020174   -8.2706415489   -7.6868536744
H        -1.8804726956   -8.5536797855   -7.9821360405
C         0.2343231957   -8.9152465404   -8.2776459388
H         0.0519260855   -9.6834049937   -9.0187387784
C         1.5340168230   -8.6030295700   -7.9460287815
H         2.3538715428   -9.1241986427   -8.4253304938
C        -1.4890137465   -6.4281793124   -5.9341318493
C        -2.8551294828   -6.3060879405   -5.8534687828
H        -3.4915694534   -6.9297896268   -6.4737604099
C        -3.4463722258   -5.3777232277   -4.9741805460
B        -4.9778287637   -5.2465644779   -4.8966367557
C        -5.9095764189   -6.1624521083   -5.7951750305
C        -6.4512851368   -5.7030836103   -7.0037642346
C        -7.2427818378   -6.5370364004   -7.7883166625
H        -7.6407397356   -6.1706066773   -8.7288914843
C        -7.5270741739   -7.8324749487   -7.3854251137
C        -7.0140486888   -8.2916511012   -6.1776880534
H        -7.2455066098   -9.2983912411   -5.8472237151
C        -6.2096458870   -7.4758403029   -5.3928682155
N        -8.3314974620   -8.6742187570   -8.1882713432
C        -9.5534199661   -8.1949138491   -8.6812599548
C        -9.9590922829   -8.4817730262   -9.9859388568
H        -9.3217066090   -9.0712644603  -10.6328230067
C       -11.1759552938   -8.0174302239  -10.4592330214
H       -11.4737679058   -8.2524409763  -11.4733507272
C       -11.9997063010   -7.2420863657   -9.6541702672
H       -12.9461997731   -6.8760057592  -10.0296258511
C       -11.5909579806   -6.9414451517   -8.3617546413
H       -12.2225220342   -6.3415813643   -7.7187836780
C       -10.3846272243   -7.4180494029   -7.8731909283
H       -10.0867245980   -7.1897220364   -6.8578164248
C        -7.8902597707   -9.9660518013   -8.5046797885
C        -8.7911240968  -11.0319633757   -8.5685113004
H        -9.8414237000  -10.8645001638   -8.3661742840
C        -8.3494931144  -12.3057160765   -8.8883643871
H        -9.0648623201  -13.1173074157   -8.9327386455
C        -7.0039032999  -12.5497787618   -9.1299313526
H        -6.6616616268  -13.5473322611   -9.3717666360
C        -6.1044486673  -11.4949924200   -9.0540734354
H        -5.0521291771  -11.6648999493   -9.2435944569
C        -6.5393472980  -10.2134191372   -8.7538254060
H        -5.8267754043   -9.3995814835   -8.7142574342
C        -5.6698766489   -8.0147725793   -4.0968945308
H        -6.0621577919   -9.0092632454   -3.8841426606
H        -4.5807102683   -8.0861660421   -4.1199628155
H        -5.9251404033   -7.3673379893   -3.2558444039
C        -6.1343938082   -4.3291414258   -7.5342163022
H        -7.0017587415   -3.9348792818   -8.0706276041
H        -5.9435768639   -3.6396315533   -6.7090839626
C        -4.9287230415   -4.3437725061   -8.4714542644
H        -4.0392272383   -4.7068684561   -7.9559029294
H        -5.1047089773   -4.9946752324   -9.3294806908
H        -4.7119501931   -3.3435704693   -8.8492823820
