134
 Final energy is   -3006.28235976141     
N         0.2014994539   -0.0909866360    0.0092281392
C         0.1696577765   -0.0219994141    1.3775282797
C         1.3681282695    0.0276829800    2.1146302663
H         2.3182315856   -0.0199444350    1.5967039875
C         1.3349606619    0.0463527329    3.4900991866
C         1.2534706361    0.4968731479   -0.7214475642
C         1.6853054605    1.7818181304   -0.3948010700
H         1.2054508487    2.3312222363    0.4047002328
C         2.7100926749    2.3580013953   -1.1238487600
H         3.0405874010    3.3583003630   -0.8799186464
C         3.2987495520    1.6633233593   -2.1728005195
H         4.0990951641    2.1183066583   -2.7405886474
C         2.8574377993    0.3860203049   -2.4980086005
H         3.3189208914   -0.1582341691   -3.3107566537
C         1.8329725214   -0.2021839989   -1.7797179899
H         1.4986113590   -1.2026329711   -2.0220886868
C        -0.8206046424   -0.7574617274   -0.6987450366
C        -1.3752582028   -0.1682905682   -1.8339997850
H        -1.0400329313    0.8058395090   -2.1656003138
C        -2.3817164885   -0.8282161228   -2.5157866449
H        -2.8249732104   -0.3674167154   -3.3881258912
C        -2.8307660529   -2.0686798512   -2.0785093768
H        -3.6185040096   -2.5786011135   -2.6167203149
C        -2.2662069021   -2.6554820936   -0.9536221254
H        -2.6026161715   -3.6273244755   -0.6188907258
C        -1.2592965063   -2.0069415746   -0.2609353775
H        -0.8024016254   -2.4743295680    0.6018998578
C        -1.0687379962   -0.0195025833    2.0512086446
H        -1.9891609442   -0.0109152351    1.4809985932
C        -1.1085494757    0.0187909657    3.4231460492
C         0.0957460842    0.0325134099    4.1743272341
C        -2.4291653618    0.0328030435    4.1316458931
H        -3.2622115264    0.0325365326    3.4296664349
H        -2.5233111177    0.9089463634    4.7743029363
H        -2.5294796918   -0.8404733566    4.7787190321
C         2.6324194274    0.0868486786    4.2474107523
H         2.5232797697   -0.4321330308    5.2013479574
H         3.3992633559   -0.4501327149    3.6841819669
C         3.0918296970    1.5226211096    4.4925018351
H         2.3661537548    2.0697095006    5.0937869322
H         4.0425087102    1.5363398419    5.0252544625
H         3.2244535395    2.0578533399    3.5510214888
B         0.0272018267   -0.0748976750    5.7490732939
C        -0.1025013290    1.1651780707    6.6276646646
C        -0.1964997410    2.4519587667    6.0566026905
H        -0.1647221791    2.5631125902    4.9762761949
C        -0.3370457713    3.5609036882    6.8504986025
C        -0.3802194897    3.4277780541    8.2702167131
C        -0.2828049319    2.1811564519    8.8454279170
H        -0.3192375360    2.0778050682    9.9250191926
C        -0.1531644951    1.0236331860    8.0487971606
C        -0.4827250642    4.9731923392    6.5184639494
C        -0.5301826327    5.6938068671    5.3514599308
H        -0.4400286061    5.2183137749    4.3820556717
C        -0.6128378888    5.6558458110    7.7436278033
C        -0.7948099217    7.0307586345    7.8518619701
C        -0.5563368121    4.7630123563    8.8356838058
C        -0.6853188635    5.2794258646   10.1002988564
H        -0.6543636141    4.6488147881   10.9802456610
C        -0.7081509982    7.0935759539    5.4321710687
H        -0.7470618128    7.6641950499    4.5127062654
C        -0.8378915304    7.7539711876    6.6336695846
H        -0.9764596154    8.8281880085    6.6460550947
C        -0.8684527930    6.6751560961   10.2428343965
H        -0.9708895140    7.0802217247   11.2415528900
C        -0.9239420941    7.5354537344    9.1689635749
H        -1.0695252209    8.5962290199    9.3320370067
C         0.0474989577   -1.4709634042    6.3711285054
C         0.0983623772   -2.6232781270    5.5599106693
H         0.1348686315   -2.5250456147    4.4791958405
C         0.0938607143   -3.8724462537    6.1220460488
C         0.0506018903   -4.0302493277    7.5403552854
C         0.0068738824   -2.9174910798    8.3468550567
H        -0.0292966443   -3.0298001854    9.4259089476
C        -0.0044953734   -1.6203692402    7.7902703595
C         0.1190512402   -5.2000666138    5.5145116801
C         0.1555939908   -5.6848109926    4.2293655428
H         0.1781853461   -5.0251753539    3.3702542851
C         0.0900674073   -6.1213132709    6.5795033200
C         0.0955514779   -7.5058428480    6.4114034824
C         0.0494976209   -5.4660038778    7.8286033515
C         0.0136256846   -6.2440008422    8.9606061870
H        -0.0197756447   -5.8092089249    9.9517111123
C         0.1626662732   -7.0851907264    4.0305073162
H         0.1911197476   -7.4642503528    3.0164545076
C         0.1340017439   -7.9794743550    5.0767439128
H         0.1399118416   -9.0449434587    4.8797765302
C         0.0195409260   -7.6526511150    8.8207688070
H        -0.0091491786   -8.2580297335    9.7180089225
C         0.0590695819   -8.2801769553    7.5963711272
H         0.0608652769   -9.3621300624    7.5392400969
B        -0.0930577887   -0.3779122843    8.6900025059
C        -0.1160697723   -0.5192552212   10.2640067145
C        -1.3148831413   -0.4659778953   10.9861625835
C        -1.2981062908   -0.5160039854   12.3763066161
H        -2.2300478708   -0.4675535874   12.9301513666
C        -0.0992194290   -0.6036072019   13.0662534071
C         1.0936937960   -0.6786490841   12.3576821607
H         2.0320005714   -0.7501103441   12.8964666296
C         1.0910189652   -0.6477401675   10.9689517449
N        -0.0921174809   -0.6005650519   14.4817047877
C        -0.7075773602    0.4595576835   15.1561364609
C        -1.3665806200    0.2602499263   16.3715360824
H        -1.4041549876   -0.7283284453   16.8110576290
C        -1.9844582877    1.3193923298   17.0164803422
H        -2.4906691839    1.1402123192   17.9566432467
C        -1.9802678574    2.5910716834   16.4598042360
H        -2.4728722451    3.4130627644   16.9618890458
C        -1.3374453420    2.7892675037   15.2455021277
H        -1.3209453485    3.7732238278   14.7939303301
C        -0.7001619476    1.7419295787   14.6013240493
H        -0.1979544745    1.9191765236   13.6590428772
C         0.5371159752   -1.6547368838   15.1534463327
C         1.2621087217   -1.4360329744   16.3263995778
H         1.3427479817   -0.4361183534   16.7329900524
C         1.8882422599   -2.4912451030   16.9699418825
H         2.4463803702   -2.2992192596   17.8775635421
C         1.8255864426   -3.7772742439   16.4507858994
H         2.3240206482   -4.5966522644   16.9515254020
C         1.1174613700   -3.9949875142   15.2767697913
H         1.0554358731   -4.9910840108   14.8569805477
C         0.4716081758   -2.9505412505   14.6358006268
H        -0.0846301091   -3.1403377176   13.7266140334
C         2.3923537740   -0.7290736806   10.2196038139
H         3.2475651623   -0.7318200687   10.8954668551
H         2.4429099780   -1.6369842669    9.6151120349
H         2.5114105521    0.1104980701    9.5316485345
C        -2.6459037635   -0.4100236541   10.2791882542
H        -2.5508213551    0.1401071482    9.3401042642
H        -3.3624344129    0.1463230624   10.8893480647
C        -3.2068213876   -1.8010748592    9.9893559022
H        -2.5389703894   -2.3648360962    9.3378275261
H        -3.3376425439   -2.3725485864   10.9094696792
H        -4.1769514288   -1.7355828527    9.4944360841
