134
 Final energy is   -3006.24068471547     
N         0.2292067414   -0.2772510745    0.0723590913
C         0.2160590589   -0.0250546009    1.4121791683
C         1.4219241511    0.0313610356    2.1467978518
H         2.3646802952   -0.1257607383    1.6383710115
C         1.3966308407    0.1761275981    3.5096220996
C         1.3517946791    0.0279733103   -0.7320648986
C         1.9513236121    1.2808970762   -0.6428414677
H         1.5599102289    2.0228782487    0.0411942105
C         3.0377911985    1.5738706328   -1.4494239495
H         3.5021119286    2.5482688096   -1.3844423895
C         3.5176707040    0.6307793647   -2.3467840451
H         4.3644496135    0.8653636995   -2.9772786566
C         2.9075940396   -0.6128808775   -2.4386221136
H         3.2812145394   -1.3516856706   -3.1344489674
C         1.8240842041   -0.9193921121   -1.6355722317
H         1.3520663320   -1.8911055536   -1.6999171160
C        -0.8779717530   -0.8995057363   -0.5564395578
C        -1.3895750842   -0.3699408576   -1.7369065967
H        -0.9547126738    0.5234406131   -2.1660728332
C        -2.4671168825   -0.9863205828   -2.3486806480
H        -2.8732738145   -0.5689368103   -3.2599993912
C        -3.0310828282   -2.1267717008   -1.7934101004
H        -3.8742291051   -2.6034360653   -2.2747767032
C        -2.5094117111   -2.6573379081   -0.6225884098
H        -2.9370247172   -3.5523503463   -0.1915785644
C        -1.4302888478   -2.0514459962   -0.0023894976
H        -1.0145307778   -2.4756195050    0.9028869434
C        -1.0177491175    0.1489073714    2.0803185678
H        -1.9354192969    0.1664764373    1.5065201679
C        -1.0548561676    0.3102637186    3.4388252940
C         0.1519954398    0.2711713584    4.1977057930
C        -2.3640583490    0.4770560285    4.1434460308
H        -3.1993218327    0.4917523332    3.4440786312
H        -2.3835606004    1.3974745036    4.7274252543
H        -2.5200376990   -0.3390290307    4.8514922273
C         2.6847819792    0.1932300320    4.2781327034
H         2.5733470544   -0.3995726441    5.1879353633
H         3.4702002411   -0.2816727963    3.6853731160
C         3.1045895355    1.6163729707    4.6421671598
H         2.3650645912    2.0949949052    5.2825442947
H         4.0498041993    1.6051362411    5.1839447051
H         3.2350506913    2.2312610959    3.7506069411
B         0.0702508037    0.1338818758    5.7649721606
C        -0.0945503819    1.3337096734    6.6857802461
C        -0.1871006307    2.6468701211    6.1759581359
H        -0.1174656718    2.8132629187    5.1037580211
C        -0.3782139263    3.7102054785    7.0182805002
C        -0.4694272365    3.5031600977    8.4250602582
C        -0.3602531279    2.2321725254    8.9405752911
H        -0.4254418218    2.0718845055   10.0115001071
C        -0.1838645056    1.1199039632    8.0936336745
C        -0.5508212181    5.1347411731    6.7535536032
C        -0.5786360436    5.9135708078    5.6257502905
H        -0.4374307642    5.4927888297    4.6374152797
C        -0.7484396555    5.7477966671    8.0051148853
C        -0.9817312514    7.1073027449    8.1769192961
C        -0.7065508085    4.8007735166    9.0501396196
C        -0.9057927379    5.2439763660   10.3317250962
H        -0.8935282197    4.5667085923   11.1765694150
C        -0.8059414657    7.3001550957    5.7703842614
H        -0.8296043323    7.9170901056    4.8809161821
C        -1.0033489593    7.8907120003    6.9973353391
H        -1.1795728813    8.9575792034    7.0589691123
C        -1.1406215372    6.6229102951   10.5395000077
H        -1.2986885036    6.9705287126   11.5523572284
C        -1.1809461424    7.5360540410    9.5113838955
H        -1.3695622475    8.5811540800    9.7232926177
C         0.0885756285   -1.2915659765    6.3115279565
C         0.1639817201   -2.4058030844    5.4491379790
H         0.2197478359   -2.2630759093    4.3737799472
C         0.1601900517   -3.6775533942    5.9513825705
C         0.0928710611   -3.9034151577    7.3579748942
C         0.0229634767   -2.8294816629    8.2140350883
H        -0.0313966221   -2.9868935147    9.2866562002
C         0.0075295477   -1.5094598424    7.7188839656
C         0.2064958937   -4.9733715347    5.2804196208
C         0.2690786874   -5.3938549686    3.9750871755
H         0.3058482484   -4.6908319121    3.1511552483
C         0.1653159484   -5.9451808205    6.2976299891
C         0.1824541963   -7.3188532255    6.0614364226
C         0.0986028105   -5.3510065799    7.5755695586
C         0.0495674116   -6.1844972255    8.6656027299
H        -0.0033074625   -5.7992181057    9.6758726293
C         0.2877923737   -6.7812466510    3.7066993046
H         0.3373213926   -7.1112816580    2.6763808380
C         0.2461173835   -7.7246025736    4.7068326894
H         0.2620582305   -8.7788046170    4.4572101815
C         0.0677858374   -7.5837877178    8.4569574420
H         0.0288308572   -8.2325338183    9.3228268695
C         0.1315336878   -8.1502019634    7.2056431721
H         0.1419216600   -9.2279484713    7.0964389966
B        -0.1138941292   -0.3099365874    8.6714836153
C        -0.1447045500   -0.5113118486   10.2365543882
C        -1.3442289849   -0.4911296505   10.9579867213
C        -1.3245848644   -0.5615416777   12.3462818120
H        -2.2544659309   -0.5308304471   12.9041782034
C        -0.1235501955   -0.6376225674   13.0333051956
C         1.0691289059   -0.6887094074   12.3235641034
H         2.0075225663   -0.7536347442   12.8623984911
C         1.0648100125   -0.6352430303   10.9365502740
N        -0.1155118008   -0.6336421295   14.4485522095
C        -0.7165531880    0.4373655394   15.1178954782
C        -1.3548450620    0.2569884267   16.3466222950
H        -1.3851062744   -0.7260515718   16.7985107531
C        -1.9585588237    1.3261183086   16.9862050476
H        -2.4490275159    1.1619773188   17.9372190937
C        -1.9609760638    2.5889724384   16.4121979776
H        -2.4429035414    3.4190006615   16.9109172134
C        -1.3391493117    2.7680206090   15.1853515892
H        -1.3281712075    3.7456767131   14.7203381513
C        -0.7161163058    1.7111436774   14.5451640051
H        -0.2297197908    1.8706567517   13.5917695950
C         0.5404506365   -1.6697527636   15.1203802422
C         1.2669854257   -1.4343064139   16.2884372290
H         1.3265807834   -0.4321207530   16.6924260789
C         1.9205165954   -2.4743883702   16.9275491649
H         2.4799096928   -2.2693709246   17.8313897355
C         1.8842272942   -3.7607543657   16.4099496052
H         2.4042679067   -4.5680495936   16.9078383411
C         1.1746192394   -3.9945971782   15.2410339560
H         1.1336414436   -4.9918651053   14.8218695080
C         0.5020451803   -2.9666065381   14.6038013527
H        -0.0535948455   -3.1650748145   13.6964250817
C         2.3651650628   -0.6726870730   10.1826589609
H         3.2213565303   -0.6987656575   10.8567261066
H         2.4232923997   -1.5503263712    9.5360823188
H         2.4751555341    0.2002673667    9.5357922450
C        -2.6738708178   -0.4377780086   10.2488547152
H        -2.5922465452    0.1658043167    9.3414734279
H        -3.4077962557    0.0656630224   10.8838166784
C        -3.1934334362   -1.8261729798    9.8813055461
H        -2.5121547187   -2.3319235864    9.1974696512
H        -3.3046912601   -2.4527090395   10.7673271473
H        -4.1666845400   -1.7622682778    9.3922481440
