134
 Final energy is   -3006.28325781016     
N        -0.1423875043   -0.0772195920    0.2075444379
C        -0.2016071106   -0.2075044316    1.6121318930
C         0.9690590705   -0.1098236460    2.3616533177
H         1.9207660689    0.0438565309    1.8699339255
C         0.9027440619   -0.2380660100    3.7371696109
H         1.8101027132   -0.1778102754    4.3224126214
C        -0.3192489600   -0.4527348223    4.3637250408
H        -0.3645362078   -0.5509036634    5.4399523885
C        -1.4833448923   -0.5355841866    3.6109942351
H        -2.4375518728   -0.6862877467    4.0971755126
C        -1.4325598255   -0.4109527427    2.2340837671
H        -2.3409827446   -0.4495706259    1.6465545202
C         0.6459443306    0.9643333330   -0.3321150141
C         1.5313285323    0.6869073901   -1.3714937802
H         1.6304534669   -0.3230502521   -1.7482051045
C         2.2979202953    1.7109951712   -1.8989229505
H         2.9915487717    1.4990138087   -2.7011315726
C         2.1850007458    2.9996602991   -1.3937531654
H         2.7846325494    3.7973411854   -1.8110568956
C         1.3051973578    3.2659102946   -0.3514416932
H         1.2115116056    4.2705598889    0.0375869288
C         0.5352204608    2.2510770144    0.1881470082
H        -0.1625397728    2.4570809214    0.9895609825
C        -0.8356804117   -0.9238123794   -0.6128099533
C        -1.1311764974   -2.2381337726   -0.1970593330
H        -0.7520035323   -2.5993335965    0.7510208026
C        -1.8436684682   -3.0855878530   -1.0141010922
C        -1.2566362379   -0.4903520698   -1.8885982342
H        -1.0568110481    0.5251027806   -2.2057618472
C        -1.9762178305   -1.3288129236   -2.7048223219
C        -2.3090255715   -2.6407765968   -2.2760161827
C        -2.4416561983   -0.8483524092   -4.0460241428
H        -2.0762478190    0.1546717645   -4.2620149505
H        -3.5310105438   -0.8343768962   -4.1030653918
H        -2.0961982392   -1.5156610957   -4.8374225824
C        -2.1414944669   -4.4809165909   -0.5373037584
H        -2.1922545066   -5.1597336381   -1.3904103843
H        -1.3200521890   -4.8322722707    0.0916660454
C        -3.4492955085   -4.5509174850    0.2488981948
H        -4.2953980138   -4.2445113759   -0.3651566757
H        -3.6366652907   -5.5696029925    0.5882989862
H        -3.4163509928   -3.9043505248    1.1271081563
B        -3.2204230905   -3.5570320777   -3.1925038807
C        -4.7400148579   -3.3972636310   -3.1125823388
C        -5.3267992935   -2.4482182669   -2.2455112824
H        -4.6928852105   -1.8199871523   -1.6270102991
C        -6.6894797070   -2.3125611959   -2.1717446039
C        -7.5471991079   -1.4324677412   -1.3775216021
C        -7.3446316398   -0.4433711982   -0.4471907640
H        -6.3504889229   -0.1436624920   -0.1387877194
C        -8.4725691490    0.1969199558    0.1182151812
H        -8.3092787055    0.9767138609    0.8514445020
C        -9.7644104801   -0.1319066485   -0.2263463880
H       -10.5964604479    0.3866257898    0.2346245670
C        -8.8747975122   -1.7597726460   -1.7229791316
C       -10.0043477140   -1.1480983570   -1.1832186864
C        -8.9186151141   -2.7903114410   -2.6851150953
C       -10.1458430201   -3.2256587273   -3.1235499220
H       -10.2426954897   -4.0142005463   -3.8599151953
C       -11.3085657405   -2.6207731276   -2.5918825774
H       -12.2744445081   -2.9659110402   -2.9392947998
C       -11.2577351836   -1.6149077278   -1.6532804121
H       -12.1756059825   -1.1818737758   -1.2741924503
C        -7.5322341287   -3.1416192292   -2.9727878601
C        -6.9830291669   -4.0688164754   -3.8247461720
H        -7.6285996165   -4.6941497091   -4.4334719888
C        -5.5853037665   -4.2184034254   -3.9238153528
C        -2.5987411550   -4.5669586679   -4.1574662123
C        -1.1957017519   -4.7104465632   -4.2590489005
H        -0.5486141142   -4.0924315739   -3.6434325687
C        -0.6430861997   -5.6221765669   -5.1242035722
C         0.7434584142   -5.9807555134   -5.4312479259
C         1.9813873111   -5.5716344619   -5.0019911979
H         2.1000625092   -4.7977821609   -4.2535849258
C         3.1283232008   -6.1856939363   -5.5588406070
H         4.1031410709   -5.8606569779   -5.2175948952
C         3.0541166248   -7.1757874810   -6.5128885389
H         3.9619529126   -7.6149279930   -6.9085421061
C         0.6812637811   -6.9958081370   -6.4091098169
C         1.7905968025   -7.6185071876   -6.9752897110
C        -0.6530704156   -7.3060043432   -6.7442612147
C        -0.8869688321   -8.2790582232   -7.6848128776
H        -1.8910930781   -8.5585681461   -7.9802837339
C         0.2224556261   -8.9265600827   -8.2757060865
H         0.0379098807   -9.6935971705   -9.0174384054
C         1.5227043971   -8.6187380395   -7.9436893518
H         2.3409001071   -9.1422269849   -8.4232777931
C        -1.4940638952   -6.4364818200   -5.9314788507
C        -2.8597567557   -6.3104593195   -5.8512119954
H        -3.4984866367   -6.9313377684   -6.4718850772
C        -3.4484859892   -5.3811917384   -4.9720535562
B        -4.9798570923   -5.2454710124   -4.8947570812
C        -5.9124425140   -6.1593695288   -5.7938576054
C        -6.4555677750   -5.6982129579   -7.0010807055
C        -7.2437673583   -6.5328615107   -7.7877429994
H        -7.6438256283   -6.1659402322   -8.7271652615
C        -7.5241035150   -7.8299516658   -7.3877249624
C        -7.0110196862   -8.2901449490   -6.1807418389
H        -7.2399935636   -9.2983560280   -5.8532485257
C        -6.2094098919   -7.4738946798   -5.3938797819
N        -8.3254107972   -8.6726330555   -8.1931750152
C        -9.5494945755   -8.1975403608   -8.6835994430
C        -9.9578817685   -8.4875816994   -9.9866816496
H        -9.3200683672   -9.0764215944  -10.6336317092
C       -11.1769885565   -8.0274646101  -10.4574415758
H       -11.4766652490   -8.2648806537  -11.4704416404
C       -12.0007133987   -7.2531838199   -9.6518421577
H       -12.9490813895   -6.8902272076  -10.0255123231
C       -11.5892824599   -6.9491429622   -8.3613521311
H       -12.2206190252   -6.3494904711   -7.7179985254
C       -10.3806577117   -7.4212831707   -7.8750475247
H       -10.0794292548   -7.1899535498   -6.8614323511
C        -7.8798526832   -9.9622954534   -8.5111548979
C        -8.7768815080  -11.0310945462   -8.5783342274
H        -9.8278521431  -10.8667822224   -8.3772585127
C        -8.3304958692  -12.3025294788   -8.8996270204
H        -9.0430264041  -13.1164616704   -8.9464424607
C        -6.9839959092  -12.5416900485   -9.1392642197
H        -6.6379590863  -13.5376621480   -9.3820889686
C        -6.0884087299  -11.4842145267   -9.0597151322
H        -5.0351590480  -11.6505229308   -9.2471005998
C        -6.5277963196  -10.2048880268   -8.7579796036
H        -5.8187191713   -9.3883227119   -8.7142767819
C        -5.6695595304   -8.0125606474   -4.0979468692
H        -6.0615673042   -9.0072313028   -3.8852983542
H        -4.5803926934   -8.0833365403   -4.1205153067
H        -5.9255371474   -7.3648561257   -3.2573952715
C        -6.1441919990   -4.3208532529   -7.5257052590
H        -7.0065873966   -3.9363206481   -8.0770381690
H        -5.9769179718   -3.6295247758   -6.6969069033
C        -4.9213094373   -4.3207100582   -8.4401930572
H        -4.0368051477   -4.6702236361   -7.9073738880
H        -5.0719253939   -4.9754195473   -9.3001746618
H        -4.7110771463   -3.3181763006   -8.8156261838
