134
 Final energy is   -3006.29445908012     
N        -0.1367923610   -0.0768438422    0.2120973255
C        -0.2040479378   -0.2025764218    1.6150880045
C         0.9628730431   -0.0996539858    2.3710105818
H         1.9172788488    0.0529995776    1.8842667804
C         0.8890528206   -0.2251468808    3.7462122661
H         1.7929889946   -0.1617964541    4.3364141797
C        -0.3363669426   -0.4415320865    4.3662958901
H        -0.3874494920   -0.5369580047    5.4425572822
C        -1.4964724471   -0.5295122382    3.6072606506
H        -2.4529975171   -0.6805095028    4.0888012364
C        -1.4385832446   -0.4088108838    2.2304926450
H        -2.3438676322   -0.4491974606    1.6383232870
C         0.6605579357    0.9552319617   -0.3287950576
C         1.5389676015    0.6689813443   -1.3724813813
H         1.6274521246   -0.3418110014   -1.7495526931
C         2.3150675088    1.6852807839   -1.9006633903
H         3.0045358948    1.4666923771   -2.7047014343
C         2.2176172852    2.9748174782   -1.3934627384
H         2.8248084566    3.7663454532   -1.8116925664
C         1.3437776165    3.2499607360   -0.3479872760
H         1.2617699027    4.2553609617    0.0417721175
C         0.5649889285    2.2430852864    0.1934858589
H        -0.1295212282    2.4565301852    0.9957536527
C        -0.8339680201   -0.9225478905   -0.6093832986
C        -1.1271967527   -2.2364912838   -0.1961023481
H        -0.7447384883   -2.6008929792    0.7494563245
C        -1.8433996311   -3.0820664493   -1.0140212621
C        -1.2591660472   -0.4853423448   -1.8810044963
H        -1.0618265069    0.5313690597   -2.1958201476
C        -1.9808315396   -1.3231548804   -2.6979656756
C        -2.3101268215   -2.6353372437   -2.2727131168
C        -2.4486703245   -0.8365361657   -4.0369129687
H        -2.0847535992    0.1680845658   -4.2476323886
H        -3.5381311348   -0.8221169092   -4.0928916476
H        -2.1019489304   -1.4977372402   -4.8329619980
C        -2.1407832708   -4.4775834341   -0.5361029919
H        -2.1979860376   -5.1563035573   -1.3891007012
H        -1.3160664930   -4.8308746803    0.0872736907
C        -3.4427317576   -4.5463562793    0.2595395840
H        -4.2922770092   -4.2345349282   -0.3473249471
H        -3.6310592862   -5.5651939083    0.5984196163
H        -3.4011272586   -3.9017625926    1.1387219029
B        -3.2201100917   -3.5522647112   -3.1911820528
C        -4.7416002715   -3.3989710830   -3.1124931134
C        -5.3303713299   -2.4522374716   -2.2442463240
H        -4.6978563656   -1.8240698283   -1.6245373658
C        -6.6937531256   -2.3185196124   -2.1715692314
C        -7.5531567860   -1.4405735039   -1.3768324990
C        -7.3519756828   -0.4531783351   -0.4439619690
H        -6.3585253487   -0.1537645851   -0.1331002089
C        -8.4815615561    0.1852441628    0.1211014546
H        -8.3194437778    0.9633735658    0.8562886712
C        -9.7730764424   -0.1435399885   -0.2260000111
H       -10.6061741610    0.3734436674    0.2348047736
C        -8.8801709363   -1.7683284872   -1.7249229510
C       -10.0110384518   -1.1582458820   -1.1853964825
C        -8.9225097633   -2.7973892358   -2.6889248415
C       -10.1490592109   -3.2330767492   -3.1298640895
H       -10.2448836740   -4.0205366413   -3.8676417831
C       -11.3130101069   -2.6296386945   -2.5984547531
H       -12.2782521202   -2.9747769241   -2.9476073615
C       -11.2637502135   -1.6250352750   -1.6579002661
H       -12.1822198639   -1.1930561432   -1.2790303304
C        -7.5350671312   -3.1472176493   -2.9753078777
C        -6.9839609270   -4.0727394779   -3.8279684710
H        -7.6291592548   -4.6971717097   -4.4381373397
C        -5.5853659711   -4.2209103586   -3.9255882589
C        -2.5982264034   -4.5607836846   -4.1593258509
C        -1.1948012720   -4.7001221628   -4.2616231099
H        -0.5493738139   -4.0802749452   -3.6463433920
C        -0.6398324128   -5.6106329090   -5.1273211285
C         0.7476242462   -5.9651336388   -5.4348416721
C         1.9846057274   -5.5513877021   -5.0062363235
H         2.1013511037   -4.7763932418   -4.2587145041
C         3.1332536190   -6.1625903945   -5.5634905637
H         4.1070624898   -5.8339236630   -5.2229614538
C         3.0617817778   -7.1540422435   -6.5168143043
H         3.9706938977   -7.5907635087   -6.9126590622
C         0.6878475626   -6.9812662804   -6.4120531564
C         1.7991137134   -7.6010871764   -6.9783069968
C        -0.6456813981   -7.2960229674   -6.7468552172
C        -0.8772020174   -8.2706415489   -7.6868536744
H        -1.8804726956   -8.5536797855   -7.9821360405
C         0.2343231957   -8.9152465404   -8.2776459388
H         0.0519260855   -9.6834049937   -9.0187387784
C         1.5340168230   -8.6030295700   -7.9460287815
H         2.3538715428   -9.1241986427   -8.4253304938
C        -1.4890137465   -6.4281793124   -5.9341318493
C        -2.8551294828   -6.3060879405   -5.8534687828
H        -3.4915694534   -6.9297896268   -6.4737604099
C        -3.4463722258   -5.3777232277   -4.9741805460
B        -4.9778287637   -5.2465644779   -4.8966367557
C        -5.9095764189   -6.1624521083   -5.7951750305
C        -6.4512851368   -5.7030836103   -7.0037642346
C        -7.2427818378   -6.5370364004   -7.7883166625
H        -7.6407397356   -6.1706066773   -8.7288914843
C        -7.5270741739   -7.8324749487   -7.3854251137
C        -7.0140486888   -8.2916511012   -6.1776880534
H        -7.2455066098   -9.2983912411   -5.8472237151
C        -6.2096458870   -7.4758403029   -5.3928682155
N        -8.3314974620   -8.6742187570   -8.1882713432
C        -9.5534199661   -8.1949138491   -8.6812599548
C        -9.9590922829   -8.4817730262   -9.9859388568
H        -9.3217066090   -9.0712644603  -10.6328230067
C       -11.1759552938   -8.0174302239  -10.4592330214
H       -11.4737679058   -8.2524409763  -11.4733507272
C       -11.9997063010   -7.2420863657   -9.6541702672
H       -12.9461997731   -6.8760057592  -10.0296258511
C       -11.5909579806   -6.9414451517   -8.3617546413
H       -12.2225220342   -6.3415813643   -7.7187836780
C       -10.3846272243   -7.4180494029   -7.8731909283
H       -10.0867245980   -7.1897220364   -6.8578164248
C        -7.8902597707   -9.9660518013   -8.5046797885
C        -8.7911240968  -11.0319633757   -8.5685113004
H        -9.8414237000  -10.8645001638   -8.3661742840
C        -8.3494931144  -12.3057160765   -8.8883643871
H        -9.0648623201  -13.1173074157   -8.9327386455
C        -7.0039032999  -12.5497787618   -9.1299313526
H        -6.6616616268  -13.5473322611   -9.3717666360
C        -6.1044486673  -11.4949924200   -9.0540734354
H        -5.0521291771  -11.6648999493   -9.2435944569
C        -6.5393472980  -10.2134191372   -8.7538254060
H        -5.8267754043   -9.3995814835   -8.7142574342
C        -5.6698766489   -8.0147725793   -4.0968945308
H        -6.0621577919   -9.0092632454   -3.8841426606
H        -4.5807102683   -8.0861660421   -4.1199628155
H        -5.9251404033   -7.3673379893   -3.2558444039
C        -6.1343938082   -4.3291414258   -7.5342163022
H        -7.0017587415   -3.9348792818   -8.0706276041
H        -5.9435768639   -3.6396315533   -6.7090839626
C        -4.9287230415   -4.3437725061   -8.4714542644
H        -4.0392272383   -4.7068684561   -7.9559029294
H        -5.1047089773   -4.9946752324   -9.3294806908
H        -4.7119501931   -3.3435704693   -8.8492823820
