134
 Final energy is   -3006.26932374144     
N        -0.1616368300   -0.0709818229    0.2052730054
C        -0.2154310674   -0.2094796027    1.6112588967
C         0.9555946489   -0.1061427018    2.3577592597
H         1.9040988395    0.0592337057    1.8636433765
C         0.8944591704   -0.2393692555    3.7332845800
H         1.8029952407   -0.1734222732    4.3160646373
C        -0.3233542817   -0.4656793359    4.3627352407
H        -0.3647399005   -0.5684069083    5.4386351864
C        -1.4883314465   -0.5544467058    3.6129718654
H        -2.4399600141   -0.7153724624    4.1009009306
C        -1.4421310724   -0.4234567798    2.2362585861
H        -2.3515098300   -0.4694300020    1.6506960013
C         0.6029418218    0.9945488133   -0.3269106143
C         1.5086373938    0.7431109939   -1.3541321011
H         1.6401134244   -0.2636618661   -1.7293590894
C         2.2496810889    1.7891926330   -1.8754778581
H         2.9576556414    1.5970568624   -2.6700919672
C         2.0919650753    3.0743245839   -1.3745844492
H         2.6714675044    3.8892822519   -1.7867480176
C         1.1930181840    3.3146980452   -0.3430089417
H         1.0648358792    4.3164459906    0.0436459508
C         0.4477058680    2.2774524833    0.1891225623
H        -0.2632702383    2.4621257232    0.9840535539
C        -0.8380224483   -0.9241300730   -0.6183500979
C        -1.1274751173   -2.2416020340   -0.2019306263
H        -0.7529450053   -2.5968468892    0.7501601205
C        -1.8283148610   -3.0951208333   -1.0198993542
C        -1.2510793929   -0.4978107495   -1.9009204362
H        -1.0538586085    0.5174911123   -2.2198568541
C        -1.9598441952   -1.3412141582   -2.7189852734
C        -2.2929568126   -2.6543335750   -2.2862225797
C        -2.4202119464   -0.8710972812   -4.0645455538
H        -2.0489526906    0.1276788960   -4.2903681547
H        -3.5094717928   -0.8532498292   -4.1224095324
H        -2.0790776185   -1.5500265243   -4.8478137054
C        -2.1204375847   -4.4918620772   -0.5456476633
H        -2.1604742535   -5.1700487063   -1.3996004154
H        -1.3016087606   -4.8377516622    0.0899501022
C        -3.4349883276   -4.5692817489    0.2291068714
H        -4.2778784019   -4.2707212344   -0.3928546907
H        -3.6176068059   -5.5889228429    0.5677565168
H        -3.4145576989   -3.9216910074    1.1070041624
B        -3.2068053697   -3.5702928931   -3.1983004953
C        -4.7237455956   -3.3999325847   -3.1145542690
C        -5.3050523650   -2.4471037728   -2.2476491423
H        -4.6676153229   -1.8201879335   -1.6310848079
C        -6.6664795602   -2.3067819518   -2.1705261145
C        -7.5192498145   -1.4234938580   -1.3744212439
C        -7.3114267832   -0.4342187194   -0.4460565556
H        -6.3153357911   -0.1363347765   -0.1421526091
C        -8.4352744414    0.2090455631    0.1231314426
H        -8.2679006048    0.9893232251    0.8549672756
C        -9.7286655177   -0.1173383765   -0.2163138139
H       -10.5577313969    0.4034653055    0.2474438894
C        -8.8486289393   -1.7476889938   -1.7147198030
C        -9.9745536827   -1.1333029035   -1.1713329345
C        -8.8978286338   -2.7786835278   -2.6758528333
C       -10.1273788356   -3.2110800273   -3.1094346517
H       -10.2282714571   -3.9997755769   -3.8449376539
C       -11.2866174509   -2.6034996740   -2.5741199746
H       -12.2544828907   -2.9466604622   -2.9178938855
C       -11.2303915982   -1.5976087107   -1.6365118565
H       -12.1460487754   -1.1625189181   -1.2545273129
C        -7.5137844553   -3.1340238064   -2.9677627365
C        -6.9699369513   -4.0640830088   -3.8199751686
H        -7.6179543599   -4.6889035908   -4.4264972773
C        -5.5736673538   -4.2186215889   -3.9222036979
C        -2.5885174318   -4.5840556020   -4.1591962531
C        -1.1862938059   -4.7347847766   -4.2626279230
H        -0.5346938206   -4.1192378066   -3.6489905053
C        -0.6400140632   -5.6498411083   -5.1273689028
C         0.7443083436   -6.0150820440   -5.4371524126
C         1.9847921094   -5.6119625031   -5.0110622005
H         2.1085010396   -4.8388276635   -4.2627434088
C         3.1275793144   -6.2306940301   -5.5703796587
H         4.1047846650   -5.9103224226   -5.2315063220
C         3.0465084393   -7.2198892070   -6.5241913477
H         3.9514995381   -7.6628568149   -6.9220591689
C         0.6754531980   -7.0296524598   -6.4146116013
C         1.7803430229   -7.6569704833   -6.9835439912
C        -0.6609735737   -7.3335070744   -6.7463392607
C        -0.9012398694   -8.3050673650   -7.6861823099
H        -1.9073963034   -8.5796658629   -7.9789951835
C         0.2034793525   -8.9572835585   -8.2799594419
H         0.0136878983   -9.7232578625   -9.0214409097
C         1.5055092638   -8.6555160394   -7.9513248720
H         2.3199550922   -9.1826235372   -8.4332626875
C        -1.4961136801   -6.4601496014   -5.9321982972
C        -2.8609473521   -6.3272075473   -5.8496969397
H        -3.5048498212   -6.9444213161   -6.4685454303
C        -3.4432255401   -5.3943420745   -4.9710676024
B        -4.9740487168   -5.2495722895   -4.8927323227
C        -5.9105774338   -6.1589832758   -5.7913050327
C        -6.4506100932   -5.6957665337   -6.9989137668
C        -7.2391178778   -6.5284372699   -7.7868264680
H        -7.6376454798   -6.1610433676   -8.7266346853
C        -7.5229163548   -7.8247441618   -7.3873642285
C        -7.0137777345   -8.2862385926   -6.1795337181
H        -7.2457961851   -9.2941606079   -5.8535690662
C        -6.2118116687   -7.4721903376   -5.3912583189
N        -8.3241071214   -8.6658530982   -8.1949595946
C        -9.5468786126   -8.1894072499   -8.6859439902
C        -9.9572036319   -8.4827488184   -9.9875710252
H        -9.3208709985   -9.0754808925  -10.6322793138
C       -11.1752823707   -8.0213689067  -10.4586832744
H       -11.4763077324   -8.2614435844  -11.4706279209
C       -11.9963491814   -7.2425394957   -9.6553858656
H       -12.9440775505   -6.8785373034  -10.0294998202
C       -11.5828851917   -6.9349676198   -8.3667404326
H       -12.2120386547   -6.3311903568   -7.7251710693
C       -10.3753071938   -7.4079835556   -7.8798003654
H       -10.0711319774   -7.1734889066   -6.8679089952
C        -7.8793035019   -9.9554339772   -8.5128818692
C        -8.7770124492  -11.0231594552   -8.5847232612
H        -9.8283303658  -10.8571291500   -8.3873179348
C        -8.3308098393  -12.2942910379   -8.9059815028
H        -9.0439815179  -13.1074058660   -8.9564113438
C        -6.9840712173  -12.5346321397   -9.1408983696
H        -6.6381951450  -13.5306179089   -9.3836587629
C        -6.0879273950  -11.4784578442   -9.0563272389
H        -5.0341588273  -11.6458897382   -9.2395083290
C        -6.5267511077  -10.1993790111   -8.7545602662
H        -5.8178377953   -9.3830971861   -8.7057122731
C        -5.6761853789   -8.0103938780   -4.0935066779
H        -6.0683459327   -9.0053055685   -3.8821823720
H        -4.5869101376   -8.0801729910   -4.1117325022
H        -5.9363710504   -7.3625380219   -3.2543911090
C        -6.1355862336   -4.3183531221   -7.5210877780
H        -6.9930495215   -3.9359017251   -8.0815485851
H        -5.9795005354   -3.6261137927   -6.6907980471
C        -4.9027506782   -4.3160483823   -8.4219353918
H        -4.0224682692   -4.6592981698   -7.8784819543
H        -5.0408942819   -4.9745581274   -9.2810616081
H        -4.6928914897   -3.3139197953   -8.7987581192
