134
 Final energy is   -3006.24184373246     
N        -0.2763964328   -0.0186245083    0.2207101536
C        -0.3514818472   -0.1965909731    1.6245484014
C         0.7915169115   -0.0369134695    2.4006439401
H         1.7368513117    0.2017368091    1.9310908015
C         0.7088984336   -0.2012671809    3.7720891527
H         1.5980604413   -0.0884669227    4.3770964121
C        -0.5044214599   -0.5173820754    4.3684357992
H        -0.5632458130   -0.6452654151    5.4406785752
C        -1.6429895321   -0.6643950347    3.5893067799
H        -2.5929311792   -0.8977939885    4.0504907620
C        -1.5740018427   -0.5002816669    2.2168302974
H        -2.4636917296   -0.5970928892    1.6076500834
C         0.3818527835    1.1420051780   -0.2586285187
C         1.3638546136    1.0227048161   -1.2365329478
H         1.6298107762    0.0461661635   -1.6207608259
C         1.9992816433    2.1598090041   -1.7054195072
H         2.7636931844    2.0686181935   -2.4648828142
C         1.6624516191    3.4066126195   -1.1984449967
H         2.1590941286    4.2931198564   -1.5685607123
C         0.6891422213    3.5161519953   -0.2145448012
H         0.4210049974    4.4873774136    0.1781884547
C         0.0471361244    2.3866389235    0.2619074719
H        -0.7195957318    2.4683782807    1.0211754115
C        -0.8535700751   -0.9046687870   -0.6384068825
C        -1.0695286868   -2.2456387947   -0.2433414822
H        -0.6995129865   -2.5851634948    0.7159958858
C        -1.7036537437   -3.1282892647   -1.0794430061
C        -1.2479747443   -0.4938357732   -1.9341702306
H        -1.0957780607    0.5324150597   -2.2417349028
C        -1.8910648560   -1.3650356256   -2.7731391038
C        -2.1840463612   -2.6952152000   -2.3475059320
C        -2.3488643164   -0.9186044643   -4.1254541880
H        -1.9899132449    0.0817086752   -4.3647370955
H        -3.4384289670   -0.9183705432   -4.1844674834
H        -1.9993660393   -1.6081211972   -4.8955626563
C        -1.9312036609   -4.5436566089   -0.6298087330
H        -1.9458678348   -5.2049105627   -1.4972980511
H        -1.0958733442   -4.8639191945   -0.0018642699
C        -3.2410472731   -4.6900815915    0.1448700128
H        -4.0959942524   -4.4100393954   -0.4688537243
H        -3.3817548464   -5.7240661273    0.4584763271
H        -3.2442776184   -4.0645961201    1.0389022521
B        -3.1048010838   -3.6156059702   -3.2404396508
C        -4.6161721833   -3.4357427635   -3.1105046205
C        -5.1720617978   -2.4878053174   -2.2207117313
H        -4.5184761042   -1.8670874188   -1.6140800098
C        -6.5296246252   -2.3462623631   -2.1061144747
C        -7.3582473215   -1.4706628740   -1.2766179386
C        -7.1228689345   -0.4934541711   -0.3433368200
H        -6.1176873171   -0.2005219779   -0.0654306251
C        -8.2281159751    0.1443247193    0.2652191908
H        -8.0396750365    0.9157691598    1.0012574107
C        -9.5302540379   -0.1763187647   -0.0418475242
H       -10.3447721817    0.3400423780    0.4515440102
C        -8.6965573799   -1.7883434498   -1.5835936806
C        -9.8051867406   -1.1792022875   -1.0016073652
C        -8.7736267657   -2.8067819388   -2.5559192549
C       -10.0152668301   -3.2304834702   -2.9604271812
H       -10.1379132522   -4.0095278972   -3.7025470469
C       -11.1576703081   -2.6283912370   -2.3855993613
H       -12.1352593863   -2.9655385401   -2.7067472713
C       -11.0738530345   -1.6354570903   -1.4375880156
H       -11.9778287254   -1.2040773128   -1.0251510242
C        -7.3996089869   -3.1619067684   -2.8893632275
C        -6.8803341479   -4.0849761854   -3.7646976305
H        -7.5419063211   -4.7020876703   -4.3642884139
C        -5.4891008684   -4.2457021755   -3.8994193295
C        -2.5106370582   -4.6298694875   -4.2123069790
C        -1.1124097245   -4.7857688119   -4.3564121683
H        -0.4389717910   -4.1691656207   -3.7671620349
C        -0.5971390401   -5.7063230174   -5.2329815885
C         0.7765155544   -6.0740359709   -5.5858866254
C         2.0295524411   -5.6699705271   -5.2026227069
H         2.1773755103   -4.8948806064   -4.4608224691
C         3.1531716211   -6.2883606097   -5.7983875180
H         4.1411013933   -5.9671137485   -5.4933723730
C         3.0401326917   -7.2781679275   -6.7471214409
H         3.9314996185   -7.7207487539   -7.1748486928
C         0.6753467095   -7.0901479745   -6.5577979533
C         1.7604017569   -7.7166238896   -7.1631990356
C        -0.6711233404   -7.3935610010   -6.8447706821
C        -0.9417915891   -8.3636297400   -7.7766314493
H        -1.9570123732   -8.6365141971   -8.0372378119
C         0.1421565339   -9.0152752259   -8.4070445809
H        -0.0719835997   -9.7800300059   -9.1429793367
C         1.4535197194   -8.7142661275   -8.1214588463
H         2.2511976361   -9.2407744989   -8.6310584971
C        -1.4787979733   -6.5180914149   -6.0063441782
C        -2.8403299704   -6.3801428124   -5.8824851049
H        -3.5090610842   -6.9972880577   -6.4741327860
C        -3.3908003180   -5.4377476172   -4.9959957609
B        -4.9182859951   -5.2786984243   -4.8846094737
C        -5.8775249009   -6.1692392395   -5.7741874192
C        -6.3265875021   -5.7317050717   -7.0250637456
C        -7.1309595765   -6.5486513080   -7.8127913571
H        -7.4551001007   -6.2014454777   -8.7882432569
C        -7.5252015953   -7.8006265306   -7.3685819672
C        -7.1062151271   -8.2331685706   -6.1151325783
H        -7.4214694287   -9.2052130229   -5.7529934116
C        -6.2853337505   -7.4376318700   -5.3293848384
N        -8.3452014986   -8.6227341486   -8.1748082146
C        -9.4583115317   -8.0665782302   -8.8196546145
C        -9.7762711146   -8.4232682130  -10.1305411050
H        -9.1545435945   -9.1344520953  -10.6589283553
C       -10.8804734504   -7.8714305305  -10.7578830941
H       -11.1103151677   -8.1607901997  -11.7754251445
C       -11.6750556834   -6.9416209428  -10.1035085582
H       -12.5318363961   -6.5062548104  -10.6001270358
C       -11.3537406525   -6.5760919815   -8.8042880987
H       -11.9652226288   -5.8547459626   -8.2775750540
C       -10.2634889326   -7.1370553132   -8.1615053799
H       -10.0265051446   -6.8525431380   -7.1447735719
C        -8.0293620860   -9.9768647398   -8.3440235869
C        -9.0375754718  -10.9409790686   -8.4041504215
H       -10.0736224561  -10.6408790206   -8.3145087127
C        -8.7207326196  -12.2777320218   -8.5752601590
H        -9.5182950820  -13.0084760406   -8.6189666436
C        -7.3982088323  -12.6861393799   -8.6678032824
H        -7.1541045180  -13.7326792996   -8.7919258788
C        -6.3937078806  -11.7323862979   -8.5957639595
H        -5.3561341974  -12.0320446759   -8.6692054039
C        -6.7006355051  -10.3903884252   -8.4457684970
H        -5.9074026173   -9.6558821493   -8.4028645283
C        -5.8433382195   -7.9379448782   -3.9827171309
H        -6.2527556204   -8.9249712882   -3.7676864713
H        -4.7553999611   -8.0080792607   -3.9233675566
H        -6.1602821963   -7.2629009633   -3.1853389432
C        -5.9046535985   -4.4002222617   -7.5913864213
H        -6.7595283975   -3.9285725554   -8.0845209237
H        -5.6081249697   -3.7243355109   -6.7864388862
C        -4.7583833861   -4.5367241827   -8.5908428771
H        -3.8725710342   -4.9574310156   -8.1150265616
H        -5.0348559956   -5.1921062583   -9.4179112789
H        -4.4836218563   -3.5678549963   -9.0103115049
