  128
FINAL HEAT OF FORMATION = -2927.787837
 C    -4.843783    -0.352091     4.509868
 C    -5.451410    -0.896407     3.389793
 C    -4.740215    -1.019199     2.185900
 C    -3.420485    -0.563041     2.135821
 C    -2.832150     0.009036     3.260076
 C    -3.530779     0.107089     4.453802
 N    -2.919267     0.651643     5.600205
 C    -6.868726    -1.392956     3.474735
 C    -2.607627    -0.661194     0.872681
 C    -1.632207     0.227877     5.964625
 C    -0.711631     1.126466     6.502359
 C    -4.454995     2.511616     5.839017
 C    -3.647967     1.530921     6.415545
 C    -5.209785     3.353918     6.636965
 C    -5.159670     3.249609     8.019460
 C    -4.349143     2.282454     8.595256
 C    -3.605108     1.422090     7.805009
 C    -1.252093    -1.102277     5.782945
 C     0.024063    -1.517024     6.121680
 C     0.935548    -0.623997     6.665863
 C     0.555801     0.696255     6.858010
 C    -6.741278    -1.567447    -1.286873
 C    -6.151646    -0.897497    -0.134505
 B    -5.416818    -1.711959     0.942293
 C    -5.344058    -3.240641     0.790982
 C    -5.935351    -3.901346    -0.361068
 B    -6.649972    -3.091292    -1.450152
 C    -4.711970    -4.013323     1.778680
 C    -4.651056    -5.380347     1.658160
 C    -5.239321    -6.034550     0.504671
 C    -5.860052    -5.295167    -0.472608
 C    -7.406581    -0.811724    -2.256248
 C    -7.502477     0.553231    -2.125463
 C    -6.912513     1.229539    -0.982602
 C    -6.257573     0.498383    -0.019198
 C    -3.399198    -6.432341     3.697074
 C    -2.986363    -7.677548     4.216132
 C    -3.236724    -8.870089     3.574047
 C    -3.933639    -8.881998     2.342715
 C    -4.329360    -7.640863     1.853158
 C    -4.078420    -6.412655     2.502249
 C    -4.273432   -10.004227     1.548313
 C    -4.956270    -9.835663     0.363457
 C    -5.345330    -8.567225    -0.112796
 C    -5.028918    -7.459723     0.640203
 C    -7.332412     5.023583    -0.901974
 C    -6.887149     3.779064    -0.409204
 C    -7.177234     2.647687    -1.133709
 C    -7.907274     2.790753    -2.334698
 C    -8.360092     4.003119    -2.842421
 C    -8.045141     5.149500    -2.074557
 C    -8.126433     1.545386    -2.964253
 C    -8.827862     1.508943    -4.147756
 C    -9.297158     2.725196    -4.680323
 C    -9.078708     3.937900    -4.061657
 C    -9.196955    -4.890741    -3.730854
 C    -8.615452    -4.272854    -2.636196
 C    -7.289646    -3.811349    -2.699130
 C    -6.572971    -4.004169    -3.883441
 C    -7.162953    -4.645964    -4.968821
 C    -8.475798    -5.087644    -4.906273
 N    -9.078621    -5.721033    -6.010950
 C    -9.421100    -4.080515    -1.381947
 C    -5.146945    -3.545888    -4.024785
 C    -8.863944    -5.231680    -7.309025
 C    -8.895908    -3.861713    -7.566801
 C   -11.042769    -7.052313    -6.534802
 C    -9.857733    -6.873495    -5.821000
 C   -11.801578    -8.196250    -6.353202
 C   -11.408137    -9.169775    -5.446838
 C   -10.235321    -8.989780    -4.728748
 C    -9.458824    -7.859037    -4.918803
 C    -8.619229    -6.110955    -8.364207
 C    -8.424433    -5.628378    -9.647198
 C    -8.448895    -4.264702    -9.899573
 C    -8.679974    -3.387384    -8.850002
 H    -5.395591    -0.284052     5.440063
 H    -1.811639     0.371019     3.206450
 H    -6.929344    -2.466002     3.279858
 H    -7.508971    -0.903035     2.737929
 H    -7.300566    -1.211557     4.458431
 H    -3.156182    -1.134538     0.058675
 H    -1.698573    -1.243780     1.031607
 H    -2.300012     0.325483     0.521686
 H    -0.991688     2.162837     6.639145
 H    -4.496134     2.603470     4.761265
 H    -5.835158     4.105053     6.171918
 H    -5.747305     3.912204     8.640421
 H    -4.307112     2.181690     9.672049
 H    -2.993447     0.656510     8.264378
 H    -1.960379    -1.810034     5.372334
 H     0.302802    -2.552076     5.970791
 H     1.929953    -0.953062     6.935785
 H     1.258236     1.406510     7.274388
 H    -4.277290    -3.519303     2.639448
 H    -6.301281    -5.784972    -1.333776
 H    -7.847630    -1.314941    -3.109748
 H    -5.816048     0.989960     0.840174
 H    -3.177708    -5.523725     4.241532
 H    -2.451902    -7.693916     5.156777
 H    -2.898666    -9.800789     4.012776
 H    -3.996248   -11.000186     1.871214
 H    -5.203989   -10.708507    -0.226714
 H    -5.878744    -8.486749    -1.051535
 H    -7.103317     5.914798    -0.332847
 H    -6.331482     3.734114     0.518349
 H    -8.363750     6.129074    -2.408272
 H    -9.021934     0.579286    -4.667747
 H    -9.849907     2.705157    -5.610533
 H    -9.460772     4.845292    -4.512493
 H   -10.227013    -5.223826    -3.676105
 H    -6.589361    -4.799478    -5.876237
 H   -10.437951    -4.455171    -1.496670
 H    -9.486606    -3.026010    -1.105941
 H    -8.971584    -4.602464    -0.534591
 H    -5.039110    -2.840994    -4.851109
 H    -4.481714    -4.386180    -4.231666
 H    -4.774537    -3.052854    -3.127688
 H    -9.091229    -3.170310    -6.757530
 H   -11.368619    -6.293830    -7.234885
 H   -12.717742    -8.319375    -6.916405
 H   -12.008593   -10.057992    -5.302704
 H    -9.911516    -9.743824    -4.022987
 H    -8.537085    -7.735024    -4.365772
 H    -8.585285    -7.176676    -8.177797
 H    -8.237788    -6.326070   -10.453466
 H    -8.289715    -3.890054   -10.901802
 H    -8.707615    -2.320960    -9.033020
