104
	Energy:     355.2706015
C          2.24957       -0.63782       -2.17500
C          2.73375       -0.43979       -3.50467
B          3.51700       -1.59671       -4.25507
C          3.75492       -2.97667       -3.51059
C          3.27012       -3.17495       -2.18114
B          2.48765       -2.01768       -1.43042
C          4.45168       -4.01547       -4.16971
C          4.64626       -5.21333       -3.49576
C          4.17610       -5.40565       -2.20688
C          3.48796       -4.40964       -1.52758
C          1.55263        0.40093       -1.51596
C          1.35688        1.59831       -2.19039
C          1.82621        1.79029       -3.47962
C          2.51477        0.79445       -4.15872
C          5.96981       -6.83729       -5.07728
C          6.51740       -8.14357       -5.13191
C          6.40078       -9.02635       -4.02291
C          5.73378       -8.59589       -2.85929
C          5.21873       -7.31614       -2.85619
C          5.31646       -6.44750       -3.90736
C          5.55290       -9.37322       -1.69860
C          4.85915       -8.82196       -0.58611
C          4.34911       -7.50032       -0.63438
C          4.54830       -6.76174       -1.80156
C          1.13915        5.20496       -5.10211
C          1.65049        3.88384       -5.05329
C          1.45263        3.14581       -3.88553
C          0.78222        3.70022       -2.83090
C          0.26592        4.97947       -2.82834
C          0.44546        5.75624       -3.98961
C          0.68581        2.83212       -1.77917
C          0.03263        3.22198       -0.60918
C         -0.51618        4.52777       -0.55507
C         -0.40093        5.40999       -1.66466
C          5.81182       -0.66120       -7.27315
C          5.37314       -0.84128       -5.95067
C          4.05288       -1.37740       -5.72589
C          3.22799       -1.71055       -6.86112
C          3.74143       -1.50039       -8.15084
C          5.00853       -0.98568       -8.36804
C          6.41346       -0.42119       -4.89733
C          1.80216       -2.28862       -6.85645
O          5.42442       -0.81489       -9.65237
C          6.65235       -0.31534      -10.03697
C          2.26793       -2.12361        2.46537
C          2.78179       -1.91528        1.17552
C          1.95179       -2.23631        0.04051
C          0.62612       -2.75875        0.26565
C          0.18714       -2.93727        1.58825
C          0.99543       -2.62466        2.68291
C          4.21306       -1.35082        1.17050
C         -0.41940       -3.16646       -0.78741
O          0.57928       -2.79397        3.96735
C         -0.65430       -3.27912        4.35232
H          4.83124       -3.89619       -5.17637
H          3.13330       -4.59064       -0.52105
H          1.17344        0.28185       -0.50914
H          2.86882        0.97524       -5.16550
H          6.05606       -6.16217       -5.91843
H          7.02943       -8.47235       -6.02671
H          6.82350      -10.02169       -4.07741
H          5.93763      -10.38410       -1.64896
H          4.71916       -9.41749        0.30646
H          3.82069       -7.07666        0.20946
H          1.27808        5.80004       -5.99514
H          2.17884        3.46014       -5.89715
H          0.05970        6.76672       -4.03970
H         -0.05259        2.54726        0.23240
H         -1.02811        4.85658        0.33977
H         -0.82461        6.40495       -1.61057
H          6.80286       -0.25873       -7.44155
H          3.13346       -1.74584       -9.01511
H          7.33190       -1.01752       -5.09343
C          6.15779       -0.52870       -3.39730
H          6.65650        0.64723       -5.08972
H          1.16261       -1.57802       -7.42532
C          1.04247       -2.59723       -5.57010
H          1.83724       -3.24304       -7.42692
H          6.70245       -0.29338      -11.14484
H          7.46888       -0.96805       -9.66078
H          6.78247        0.72099       -9.65835
H          2.87963       -1.88698        3.32946
H         -0.80801       -3.32937        1.75692
H          4.84734       -2.06927        1.73540
H          4.18744       -0.39839        1.74478
C          4.97262       -1.04268       -0.11602
H         -1.33154       -2.56075       -0.59066
H         -0.67339       -4.23239       -0.59534
C         -0.16280       -3.06233       -2.28754
H         -0.70313       -3.30348        5.46019
H         -1.46303       -2.61510        3.97908
H         -0.79802       -4.31266        3.97105
H          0.87262       -1.67649       -4.97921
H          1.56059       -3.37829       -4.98095
H          0.04153       -3.00187       -5.83066
H         -1.06299       -3.41707       -2.83281
H          0.00073       -2.01012       -2.58999
H          0.67644       -3.71687       -2.59281
H          4.45825       -0.25630       -0.70164
H          5.13581       -1.96226       -0.71030
H          5.97677       -0.64589        0.14427
H          5.31358        0.11879       -3.09131
H          7.05489       -0.16667       -2.85173
H          6.00253       -1.58267       -3.09596
