104
	Energy:     306.7942936
C          2.26928       -1.59514       -0.35801
C          3.21193       -1.26908       -1.38163
B          4.39415       -2.26826       -1.73624
C          4.51367       -3.63499       -0.93646
C          3.57099       -3.96107        0.08716
B          2.38853       -2.96203        0.44149
C          5.53556       -4.55630       -1.27054
C          5.60215       -5.75612       -0.57783
C          4.68964       -6.07177        0.41307
C          3.66547       -5.20316        0.76018
C          1.24757       -0.67372       -0.02372
C          1.18124        0.52629       -0.71612
C          2.09374        0.84192       -1.70705
C          3.11763       -0.02689       -2.05448
C          7.63524       -7.12982       -1.51097
C          8.31869       -8.36137       -1.35138
C          7.88455       -9.31269       -0.38730
C          6.76356       -9.02584        0.41600
C          6.13379       -7.81396        0.22210
C          6.52952       -6.88211       -0.69639
C          6.23670       -9.88273        1.40209
C          5.09603       -9.47617        2.14808
C          4.48577       -8.21930        1.90901
C          5.03705       -7.39838        0.92428
C          1.68832        4.24700       -3.44096
C          2.29815        2.98983       -3.20238
C          1.74670        2.16879       -2.21784
C          0.65020        2.58455       -1.51539
C          0.02084        3.79671       -1.70882
C          0.54790        4.65373       -2.69470
C          0.25426        1.65255       -0.59713
C         -0.85125        1.90042        0.21769
C         -1.53427        3.13227        0.05858
C         -1.09992        4.08373       -0.90526
C          7.71219       -1.30615       -3.57010
C          6.80240       -1.61341       -2.54446
C          5.44484       -1.90519       -2.87886
C          5.03786       -1.86881       -4.24714
C          5.97965       -1.53713       -5.23442
C          7.30547       -1.26196       -4.91229
C          7.32173       -1.59049       -1.10991
C          3.62173       -2.20095       -4.70683
O          8.16470       -0.95773       -5.92222
C          9.50426       -0.66180       -5.77044
C          0.79842       -3.69619        3.93701
C          1.74149       -3.36343        2.95132
C          1.33643       -3.32609        1.58250
C         -0.02060       -3.61792        1.24596
C         -0.93173       -3.92629        2.27007
C         -0.52687       -3.97150        3.61279
C          3.15685       -3.03115        3.41323
C         -0.53798       -3.63969       -0.18932
O         -1.38745       -4.27685        4.62124
C         -2.72668       -4.57314        4.46729
H          6.25611       -4.35045       -2.05080
H          2.96002       -5.49055        1.52837
H          0.52703       -0.87961        0.75655
H          3.82308        0.26045       -2.82270
H          7.96172       -6.40299       -2.24303
H          9.17952       -8.57986       -1.96957
H          8.41523      -10.24984       -0.27543
H          6.69341      -10.84546        1.59427
H          4.68965      -10.13302        2.90593
H          3.61786       -7.90564        2.47393
H          2.09485        4.90395       -4.19864
H          3.16590        2.67605       -3.76749
H          0.09152        5.61669       -2.88650
H         -1.17787        1.17350        0.94960
H         -2.39492        3.35090        0.67698
H         -1.63026        5.02111       -1.01675
H          8.73952       -1.08490       -3.31403
H          5.68423       -1.50678       -6.27653
H          7.13242       -2.55462       -0.60154
C          6.74567       -0.43273       -0.29137
H          8.42438       -1.44739       -1.10571
H          3.51840       -2.00021       -5.79564
C          3.26963       -3.67823       -4.51715
H          2.87693       -1.55839       -4.20059
H          9.94422       -0.45694       -6.76786
H         10.04060       -1.52394       -5.31953
H          9.62974        0.24295       -5.13803
H          1.09237       -3.72728        4.97951
H         -1.95864       -4.14760        2.01237
H          3.90262       -3.67298        2.90751
H          3.25875       -3.23271        4.50202
C          3.50857       -1.55358        3.22517
H         -0.34827       -2.67502       -0.69652
H         -1.64060       -3.78306       -0.19513
C          0.03942       -4.79653       -1.00823
H         -3.16802       -4.77898        5.46389
H         -3.26269       -3.71083        4.01631
H         -2.85092       -5.47741        3.83395
H          2.25069       -3.86654       -4.91623
H          3.27233       -3.98346       -3.45505
H          3.99025       -4.31431       -5.07390
H          1.13530       -4.72546       -1.13153
H         -0.41207       -4.78899       -2.02266
H         -0.20353       -5.76453       -0.52057
H          3.50715       -1.24756        2.16329
H          4.52689       -1.36514        3.62578
H          2.78692       -0.91824        3.78143
H          7.19847       -0.43940        0.72248
H          5.64993       -0.50342       -0.16663
H          6.98823        0.53474       -0.78028
