98
 Final energy is   -2202.25575916146     
C         2.6043409552   -1.4531444045    0.0604591305
C         3.5528330874   -1.1204429263   -0.9369821839
B         4.5894207558   -2.1869675592   -1.3964224745
C         4.6735589580   -3.5519910812   -0.6548118190
C         3.7110101543   -3.8892950702    0.3238126044
B         2.6014545476   -2.8707395443    0.7047786159
C         5.6365904606   -4.4918136792   -1.0326581331
C         5.6376010684   -5.7487947124   -0.4591937378
C         4.6553057994   -6.0956197624    0.4944072842
C         3.7072698410   -5.1694651364    0.8843885414
C         1.5973348627   -0.5436977840    0.3898872113
C         1.5253834972    0.6728565838   -0.2618033887
C         2.4796531367    1.0149223023   -1.2444932817
C         3.4794051786    0.1190731820   -1.5794425723
C         7.5049826314   -7.2304861911   -1.5500761169
C         8.0066337213   -8.5535990342   -1.5618015909
C         7.4719064869   -9.5526016839   -0.7832403545
C         6.3806876932   -9.2755591446    0.0742399800
C         5.9250528795   -7.9614214545    0.0809395711
C         6.4571120814   -6.9340224779   -0.7192681906
C         5.6737768055  -10.1867188957    0.8950996322
C         4.5960576783   -9.7564443738    1.6322666505
C         4.1508321538   -8.4132877016    1.6125588551
C         4.8251485033   -7.5099961312    0.8333989715
C         1.8521320323    4.2804318794   -3.1507764892
C         2.5761593996    3.1108721265   -2.8170747286
C         2.0955182213    2.3068052571   -1.8180389836
C         0.9030494852    2.6837376696   -1.1716455831
C         0.1539723283    3.8084833063   -1.4965814958
C         0.6778081613    4.6274364966   -2.5253249058
C         0.5143232771    1.7268553132   -0.2166887988
C        -0.6695741475    1.9039724613    0.4487684188
C        -1.4472457911    3.0468496194    0.1487487194
C        -1.0611350764    3.9747738859   -0.7895549336
C         7.3854840650   -1.0710870534   -3.8482700177
C         6.6446669204   -1.2415885701   -2.6772084581
C         5.4548191328   -1.9645008242   -2.6863656383
C         5.0098022176   -2.5186128854   -3.9017721454
C         5.7450794716   -2.3385630321   -5.0580039699
C         6.9368065881   -1.6164147038   -5.0409640462
C         7.1891957042   -0.6757930877   -1.3917065282
C         3.7249275141   -3.3000879574   -3.9544900193
O         7.5711184237   -1.4992770186   -6.2265141247
C         8.7683490544   -0.7722832503   -6.2763634522
C         0.6370861494   -3.5599928966    3.9547747996
C         1.6483681173   -3.1996413862    3.0833625021
C         1.4561567547   -3.2905372729    1.6945426162
C         0.2317066379   -3.7542783432    1.2171202550
C        -0.7849648043   -4.1151295120    2.1023348574
C        -0.5872136214   -4.0183478291    3.4705818375
C         2.9617977736   -2.7017519595    3.6179399877
C        -0.0154144188   -3.9311011273   -0.2605498537
O        -1.5121778839   -4.3367144035    4.4008415977
C        -2.7720313408   -4.7739403420    3.9686637794
H         6.3559370561   -4.2437579995   -1.8055119467
H         2.9364111956   -5.4392806302    1.5983836971
H         0.8486192748   -0.8178216395    1.1249043002
H         4.1848165590    0.3535724398   -2.3689064111
H         7.9459758990   -6.4870994523   -2.2021303584
H         8.8336438538   -8.7867223320   -2.2196706162
H         7.8777718990  -10.5554669391   -0.8374857789
H         5.9723029794  -11.2273293748    0.9327814748
H         4.0601659200  -10.4694700694    2.2452258006
H         3.2851037572   -8.1305463309    2.1984845391
H         2.2318965836    4.9135415835   -3.9419553027
H         3.4783598640    2.8662353425   -3.3636488290
H         0.1478850012    5.5213685808   -2.8304429874
H        -1.0273543118    1.1890486017    1.1794255792
H        -2.3849514989    3.1862313957    0.6707515033
H        -1.6962765489    4.8273970449   -0.9963334338
H         8.3058457982   -0.5018086652   -3.8015680423
H         5.3985364280   -2.7512470763   -5.9982736675
H         7.7060560980    0.2664602265   -1.5925030655
C         8.1477697964   -1.6382398603   -0.6934486916
H         6.3688116781   -0.4263555664   -0.7124825147
H         9.1050481591   -0.7970936335   -7.3107844344
H         9.5493131907   -1.2118954084   -5.6470365174
H         8.6326582275    0.2732413634   -5.9806160671
H         0.7796929557   -3.4811581629    5.0259461175
H        -1.7256948957   -4.4635092414    1.6930800060
H         0.6263865031   -3.2605928723   -0.8388153329
H        -1.0402284946   -3.6329985754   -0.4993913470
C         0.2110866382   -5.3695547477   -0.7213215933
H        -3.3614636114   -4.9602012567    4.8640961014
H        -3.2888917987   -4.0215641441    3.3635794637
H        -2.7162330698   -5.7029637534    3.3915293176
H         1.2394090322   -5.6847001703   -0.5424534794
H         0.0124023575   -5.4740763882   -1.7885501924
H        -0.4441061525   -6.0610366231   -0.1901386075
H         8.9882548464   -1.8942496406   -1.3398098880
H         7.6471926032   -2.5670518243   -0.4195068615
H         8.5495569254   -1.1988918480    0.2202233585
H         3.4614512081   -3.5679989960   -4.9771780752
H         2.8891702413   -2.7305928065   -3.5414693243
H         3.7941890495   -4.2260757307   -3.3801837135
H         3.7758176029   -3.3892565966    3.3775110113
H         2.9405711782   -2.5837917564    4.7006836122
H         3.2250667386   -1.7332143467    3.1869827943
