110
 Final energy is   -2285.16434990064     
C        -6.3618288068    3.9704680776    1.7327408728
C        -6.8666863418    2.6714178993    1.9877386966
B        -5.9601002577    1.4209926501    1.8508433468
C        -4.4948260210    1.6158212743    1.3824647476
C        -3.9757222995    2.9132499303    1.1444783570
B        -4.8741050297    4.1673251203    1.3339731232
C        -2.6767424844    3.0297092802    0.6909844761
C        -1.8563270332    1.9188281959    0.4221263265
C        -2.3820733934    0.6328662344    0.6394420266
C        -3.6904667268    0.5232618679    1.1370395842
C        -7.2323442555    5.0410517900    1.7947694486
C        -8.6031748279    4.8976412334    2.0767772188
C        -9.0973999373    3.6078992089    2.3430649726
C        -8.2020485094    2.5281975530    2.2985952252
H        -6.8257104194    6.0228930103    1.5934260679
C        -6.5422947385   -0.0117239428    2.1239736493
C        -4.3039524317    5.6051417290    1.0843972549
C        -7.1402242872   -0.7363716325    1.0876835295
C        -7.6710379975   -1.9965374552    1.3424839267
C        -7.6256285284   -2.5626718714    2.6084544956
C        -7.0315395518   -1.8324057327    3.6314596353
C        -6.4924595802   -0.5729702695    3.4057815117
C        -5.8653448282    0.2005248205    4.5309173728
C        -7.2189982040   -0.1518517324   -0.2957290387
H        -8.1334013275   -2.5475915853    0.5299555242
C        -8.1832470795   -3.9322718349    2.8680043994
H        -6.9871215832   -2.2561294355    4.6297464350
H        -4.8444245106    0.5019299151    4.2865383422
H        -5.8237084565   -0.3826386926    5.4504425321
H        -6.4260148999    1.1132647892    4.7460541675
H        -7.7907420225    0.7788299020   -0.3035739937
H        -7.6990862762   -0.8353901004   -0.9955910566
H        -6.2279957724    0.0786646896   -0.6926690270
H        -8.7924413624   -4.2823255577    2.0351732240
H        -8.8056666323   -3.9491732592    3.7634947613
H        -7.3861348703   -4.6632433455    3.0179642403
C        -3.7568675743    6.3347220800    2.1422740126
C        -3.2477360181    7.6084257165    1.9120316080
C        -3.2705578027    8.1789467999    0.6468093374
C        -3.8251816350    7.4453457739   -0.3962259072
C        -4.3400444073    6.1718470049   -0.1958048726
C        -4.9338373442    5.3985166921   -1.3407840320
C        -3.7250297880    5.7333842452    3.5198095006
H        -2.8220302597    8.1655430300    2.7399847935
C        -2.7072362865    9.5476692954    0.3968199760
H        -3.8563974083    7.8775189551   -1.3915961295
H        -4.9516018904    5.9852453030   -2.2589023009
H        -5.9606640265    5.0929132334   -1.1273569405
H        -4.3679329069    4.4868386192   -1.5461326442
H        -4.7325160562    5.5214836896    3.8853321905
H        -3.2481271645    6.3955176320    4.2419692150
H        -3.1763900340    4.7886695189    3.5295455628
H        -2.3809046966   10.0228603086    1.3212127299
H        -3.4433150177   10.2040242671   -0.0698409257
H        -1.8454451503    9.5063162272   -0.2719316187
C        -0.5064148352    2.0707280461   -0.0971787743
C       -10.5093622345    3.4032497796    2.6266173512
C       -11.0231928052    2.1251815752    2.9073951972
C         1.3226419590    3.5156910173   -0.8148957069
C         2.0681577437    2.3723095303   -1.1228000103
C       -13.2222073268    2.9995190639    3.1336468596
C       -12.3568930643    1.9001077307    3.1601027589
C       -12.8798201940    0.5269631654    3.4598471544
H        -4.1141268523   -0.4537685268    1.3258227656
C         0.0561104763    3.3397487392   -0.3070520311
H        -2.3002129732    4.0282528472    0.5169791782
C        -1.5940752781   -0.5477269304    0.3219660493
C        -0.1100929883   -2.8144399332   -0.3383718331
C        -1.3956374282   -2.9768453257    0.1900250468
C        -2.1070151670   -1.8428713332    0.5076822506
C        -1.9710381014   -4.3465777425    0.3944616048
H        -3.1023415845   -1.9766565523    0.9077063717
H        -8.5619155504    1.5267286971    2.4901848796
H       -10.3620812831    1.2700503218    2.9284767134
C        -9.5141112350    6.0325102541    2.0689968822
C        -9.0598664490    7.3328651569    1.7955407307
C        -9.9020443843    8.4205701898    1.7555634180
C       -11.2623898729    8.2049349095    2.0006024427
C        -9.3909868288    9.7981583741    1.4594721739
H        -8.0103609356    7.5044762443    1.6014362404
C       -10.8833177491    5.8308498030    2.3184080453
C         0.2527964191    0.9298997410   -0.4107963090
C        -0.3015464111   -0.3991912485   -0.2061882066
C       -11.3888200608    4.4977191610    2.6064187099
C         1.5450693006    1.1198741803   -0.9243964004
C         0.4163471575   -1.5625429028   -0.5285020462
H         0.4768039898   -3.6858889564   -0.6039264002
H         1.4111968950   -1.4927921843   -0.9434332225
H        -0.5152845051    4.2254205899   -0.0670471961
C         1.8891356477    4.8835553961   -1.0475978916
H         3.0701691536    2.4741060474   -1.5223864295
H         2.1612945538    0.2689335382   -1.1759837227
C       -11.7339015699    6.9465636117    2.2741563069
H       -12.7928342212    6.8314009161    2.4541360584
H       -11.9534419842    9.0391399059    1.9728669121
C       -12.7482747940    4.2579824307    2.8657948616
H       -14.2790727912    2.8562375734    3.3258241002
H       -13.4578176578    5.0723363609    2.8581234319
H         2.8500967744    5.0084569488   -0.5463448809
H         1.2208418230    5.6618839798   -0.6818944047
H         2.0547182414    5.0646648077   -2.1111904709
H        -1.9997308981   -4.9077126210   -0.5409895434
H        -2.9872448456   -4.3010919309    0.7836183095
H        -1.3736273265   -4.9271221705    1.0995978497
H       -13.2585142017    0.4621235103    4.4816000395
H       -13.7035315888    0.2622179775    2.7949406967
H       -12.1071373262   -0.2322474860    3.3466706538
H        -9.5617861630   10.4723263582    2.3005328492
H        -8.3218789379    9.7939893063    1.2520645687
H        -9.8946229783   10.2298069423    0.5929960863
