110
	Energy:     620.9774999
C         -6.45840        3.93646        1.56769
C         -6.96959        2.65687        1.80092
B         -6.05608        1.37002        1.57746
C         -4.55283        1.56512        1.08457
C         -4.04326        2.84513        0.85171
B         -4.95639        4.13192        1.07512
C         -2.70956        2.99319        0.45319
C         -1.84793        1.87843        0.25860
C         -2.36735        0.57334        0.49608
C         -3.72101        0.45196        0.91551
C         -7.29044        5.04758        1.73669
C         -8.63842        4.91929        2.15466
C         -9.16881        3.62834        2.39393
C         -8.30556        2.50991        2.19947
H         -6.86483        6.00732        1.53201
C         -6.63847       -0.09357        1.84302
C         -4.37545        5.59577        0.80822
C         -6.89489       -0.97212        0.75519
C         -7.40776       -2.25424        1.00602
C         -7.66752       -2.67868        2.31298
C         -7.41592       -1.81886        3.38487
C         -6.90533       -0.52972        3.16939
C         -6.62217        0.34711        4.36767
C         -6.66213       -0.55245       -0.67828
H         -7.60994       -2.92409        0.17862
C         -8.21504       -4.05140        2.57557
H         -7.61605       -2.15989        4.39408
H         -5.54412        0.61211        4.38922
H         -6.86532       -0.16700        5.32170
H         -7.22361        1.27542        4.33221
H         -7.27894        0.34132       -0.90985
H         -6.94286       -1.35417       -1.39384
H         -5.59607       -0.31347       -0.85467
H         -8.36493       -4.62177        1.63420
H         -9.19332       -3.96961        3.09448
H         -7.50901       -4.61768        3.21885
C         -4.12018        6.47573        1.89520
C         -3.60859        7.75812        1.64314
C         -3.34898        8.18149        0.33582
C         -3.59943        7.32031       -0.73522
C         -4.10873        6.03086       -0.51855
C         -4.39081        5.15266       -1.71611
C         -4.35264        6.05733        3.32910
H         -3.40726        8.42904        2.46990
C         -2.80287        9.55452        0.07193
H         -3.39944        7.66053       -1.74474
H         -4.14811        5.66621       -2.67056
H         -5.46858        4.88650       -1.73756
H         -3.78840        4.22505       -1.67996
H         -5.41842        5.81745        3.50575
H         -4.07278        6.86009        4.04384
H         -3.73490        5.16446        3.56166
H         -2.65381       10.12604        1.01273
H         -3.50936       10.11937       -0.57211
H         -1.82438        9.47324       -0.44668
C         -0.48722        2.04406       -0.16006
C        -10.60104        3.47700        2.83125
C        -11.08430        2.23092        3.05613
C          1.39587        3.49017       -0.81820
C          2.19951        2.37356       -0.98791
C        -13.25451        3.08730        3.64838
C        -12.48163        2.01793        3.48700
C        -12.99882        0.62762        3.73163
H         -4.15767       -0.50050        1.12326
C          0.07166        3.33317       -0.41057
H         -2.36861        3.99470        0.30554
C         -1.52991       -0.57591        0.31680
C          0.12186       -2.84717       -0.03749
C         -1.19341       -3.01615        0.36620
C         -2.01118       -1.90051        0.54208
C         -1.74339       -4.39209        0.61497
H         -3.01535       -2.11086        0.85398
H         -8.64143        1.50739        2.34493
H        -10.51322        1.33082        2.94616
C         -9.51372        6.11933        2.34100
C         -9.02772        7.43678        2.11679
C         -9.84429        8.55191        2.29100
C        -11.16052        8.37992        2.69193
C         -9.29407        9.92773        2.04417
H         -8.01924        7.63402        1.80680
C        -10.86059        5.93884        2.75324
C          0.34779        0.89900       -0.33857
C         -0.17367       -0.41128       -0.10006
C        -11.38614        4.55231        2.99705
C          1.69468        1.10191       -0.75558
C          0.62893       -1.57609       -0.26805
H          0.76568       -3.70737       -0.17708
H          1.65508       -1.54270       -0.57751
H         -0.48713        4.24198       -0.30240
C          1.94144        4.86719       -1.07065
H          3.22980        2.48451       -1.30435
H          2.38808        0.29922       -0.91290
C        -11.66695        7.10622        2.92079
H        -12.69317        7.07943        3.22774
H        -11.80576        9.23920        2.83092
C        -12.67447        4.41572        3.38972
H        -14.29002        2.99542        3.96336
H        -13.35417        5.23061        3.53989
H          3.00555        4.83749       -1.38838
H          1.87087        5.47239       -0.14229
H          1.35149        5.36115       -1.87133
H         -0.98093       -5.17984        0.43531
H         -2.60381       -4.57789       -0.06200
H         -2.08661       -4.47187        1.66803
H        -14.06367        0.63137        4.04930
H        -12.91205        0.03151        2.79917
H        -12.39582        0.14375        4.52828
H        -10.05736       10.71493        2.22268
H         -8.43517       10.11331        2.72310
H         -8.94860       10.00808        0.99190
