   90
FINAL HEAT OF FORMATION = -1973.623626
 C    -6.198801     4.005763     1.747487
 C    -6.740066     2.687322     2.025670
 B    -5.884757     1.426141     1.851908
 C    -4.434213     1.583613     1.380636
 C    -3.864355     2.905038     1.147462
 B    -4.725183     4.165467     1.339922
 C    -2.542308     3.014029     0.684875
 C    -1.801276     1.885053     0.423756
 C    -2.384415     0.569930     0.641818
 C    -3.665950     0.444916     1.122764
 C    -7.045179     5.127567     1.804279
 C    -8.375936     4.977806     2.116783
 C    -8.897136     3.662292     2.432017
 C    -8.085221     2.556559     2.386644
 H    -6.638350     6.106298     1.575793
 C    -6.515967     0.000464     2.081642
 C    -4.123025     5.594108     1.077928
 C    -7.139011    -0.671207     1.023736
 C    -7.701310    -1.926601     1.232183
 C    -7.666589    -2.541754     2.475028
 C    -7.047539    -1.867229     3.521110
 C    -6.476847    -0.614101     3.340117
 C    -5.822782     0.093234     4.493482
 C    -7.209284    -0.038560    -0.338893
 H    -8.178421    -2.435891     0.401007
 C    -8.288890    -3.890751     2.692686
 H    -7.007597    -2.331211     4.501654
 H    -4.789683     0.361380     4.262944
 H    -5.811790    -0.522591     5.392651
 H    -6.344269     1.021968     4.735943
 H    -7.761730     0.903239    -0.313718
 H    -7.704910    -0.689026    -1.059605
 H    -6.215507     0.187547    -0.730789
 H    -8.601616    -4.344178     1.752534
 H    -9.171688    -3.823641     3.331582
 H    -7.595047    -4.579735     3.176358
 C    -3.567434     6.328828     2.128963
 C    -3.030049     7.589167     1.887255
 C    -3.032562     8.145288     0.615765
 C    -3.596436     7.410724    -0.421304
 C    -4.138339     6.150213    -0.208198
 C    -4.740832     5.381120    -1.351796
 C    -3.556432     5.752101     3.517449
 H    -2.598446     8.147736     2.711293
 C    -2.438143     9.498542     0.353571
 H    -3.613349     7.832155    -1.421731
 H    -4.746170     5.965091    -2.272125
 H    -5.772095     5.090345    -1.140164
 H    -4.189713     4.459285    -1.551604
 H    -4.570240     5.575621     3.883901
 H    -3.061842     6.414475     4.227688
 H    -3.038166     4.791199     3.547828
 H    -2.110293     9.978580     1.275009
 H    -3.155616    10.164535    -0.128233
 H    -1.570995     9.430570    -0.306097
 C    -0.470701     1.684415    -0.115487
 C   -10.312194     3.786785     2.697639
 C   -11.317921     2.906452     3.022622
 C     1.715817     1.916382    -1.057187
 C     1.879768     0.552162    -1.158991
 C     0.849920    -0.321969    -0.736113
 C   -12.931343     4.740195     2.988061
 C   -12.626514     3.408692     3.167847
 H   -13.420670     2.719515     3.424045
 H     2.797113     0.149357    -1.569938
 C    -0.289300     0.286810    -0.220603
 H    -4.100464    -0.535872     1.283952
 C     0.544024     2.507786    -0.541162
 H     2.515497     2.563664    -1.392251
 H     0.459775     3.585624    -0.493283
 H    -2.124511     3.999166     0.511113
 C    -1.425141    -0.423195     0.228154
 C     0.828495    -1.737809    -0.789506
 C    -0.277154    -2.436903    -0.353284
 C    -1.422423    -1.798373     0.160349
 H    -0.268763    -3.517632    -0.411196
 H    -2.272123    -2.387353     0.481812
 H    -8.486540     1.571392     2.598457
 H   -11.128666     1.849560     3.160987
 C   -10.629016     5.149643     2.523389
 C    -9.491256     5.909740     2.173471
 C    -9.658240     7.253333     1.939452
 C   -10.952199     7.804620     2.061645
 C   -12.053481     7.052194     2.403967
 C   -11.915721     5.665736     2.648124
 H   -11.080911     8.862314     1.873238
 H   -13.026670     7.521251     2.479850
 H    -8.829361     7.889990     1.658710
 H   -13.954181     5.077672     3.102092
 H     1.682365    -2.276511    -1.181230
