90
 Final energy is   -2123.28740178383     
C        -0.0150037181    0.0928469028    0.0668960036
C        -0.0151016391    0.0729567325    1.4773007215
H         0.9321599580    0.0720749846    2.0043652603
C        -1.1981535923    0.0543904363    2.1698090030
C        -2.4562466374    0.0544695257    1.4486709939
C        -2.4830575739    0.0649659053    0.0792496973
H        -3.4282863307    0.0605132708   -0.4517764876
C        -1.2855244632    0.0854866778   -0.6508006171
C        -3.5307996064    0.0403719008    2.4143307745
C        -4.9026085349    0.0385689717    2.3302840154
H        -5.4154495905    0.0497856529    1.3768989921
C        -2.9213510360    0.0287430212    3.6856033866
C        -3.6330709714    0.0135157594    4.8820060781
C        -1.5127278718    0.0351905039    3.5884311981
C        -0.7829321246    0.0235770010    4.7508759268
H         0.2992326102    0.0255916697    4.7442675751
C        -1.4776378290    0.0072650147    5.9796840223
H        -0.9018366977   -0.0021232367    6.8956143163
C        -2.8527401213    0.0026445326    6.0607255681
H        -3.3351309946   -0.0095864856    7.0300850361
C        -5.6443381901    0.0239164057    3.5280137424
H        -6.7249262880    0.0230034680    3.4689414449
C        -5.0436081004    0.0112843369    4.7684591361
H        -5.6575364951    0.0001671080    5.6604824941
B         1.3073134194    0.1262338492   -0.7041989985
C         1.2702317364    0.1481673424   -2.2335099726
C         2.4723473860    0.1683208381   -2.9718738454
H         3.4173353185    0.1602103518   -2.4410926432
C         2.4424314688    0.1935377168   -4.3418361516
C         1.1687243095    0.2071940469   -5.0340863603
C        -0.0113228036    0.1832517195   -4.3415402401
H        -0.9574054275    0.1897546429   -4.8709486106
C        -0.0048064239    0.1481742644   -2.9396582254
C         1.4259413552    0.2369550407   -6.4563661192
C         0.6362191482    0.2604707667   -7.5813835776
H        -0.4445938718    0.2645557005   -7.5193859704
C         2.8276616733    0.2353071700   -6.6047824501
C         3.4725041185    0.2532791786   -7.8401433213
C         3.4862349556    0.2092720781   -5.3563222640
C         4.8594189065    0.1996123911   -5.3504635778
H         5.4252394075    0.1765352335   -4.4283382247
C         1.2665411091    0.2805539597   -8.8419503502
H         0.6486924158    0.2992451931   -9.7303165218
C         2.6372315558    0.2767146667   -8.9820266480
H         3.0758683455    0.2914539391   -9.9721811791
C         5.5396519470    0.2174213639   -6.5876358689
H         6.6215736207    0.2090983170   -6.5797313967
C         4.8850882019    0.2436882413   -7.7990383714
H         5.4544091060    0.2560269882   -8.7202347006
B        -1.3298753102    0.0986556705   -2.1792831887
C         2.6834531767    0.1538188895    0.0624011650
C         3.3430106816   -1.0598864207    0.4001475574
C         2.7988786004   -2.3192439705    0.0444548790
H         1.8618208649   -2.3551778802   -0.4991180998
C         3.4336622629   -3.4841522612    0.3731619293
H         2.9999635230   -4.4345830437    0.0902911218
C         4.6514812856   -3.4553957513    1.0802446747
H         5.1457677584   -4.3831838654    1.3374685375
C         5.2050869717   -2.2585615432    1.4379702385
H         6.1427665270   -2.2308814988    1.9806827469
C         4.5712044194   -1.0388027520    1.1087544958
C         5.1226066737    0.2096849109    1.4631926751
H         6.0604610713    0.2386279160    2.0052246807
C         4.4835717401    1.3686046601    1.1261599578
H         4.9201488801    2.3209132905    1.4039064964
C         3.2588588275    1.3557383458    0.4224982696
C         2.5879816361    2.6552687741    0.0712621759
H         3.1632261053    3.5141313058    0.4169035088
H         2.4580343104    2.7586721476   -1.0079659141
H         1.5929483105    2.7253844304    0.5156619529
C        -2.6982925192    0.0318884180   -2.9686104927
C        -3.2196889775   -1.1890125998   -3.3533391456
C        -4.4248776675   -1.2468540939   -4.0883104854
H        -4.8151204269   -2.2149010233   -4.3806782735
C        -5.1014692110   -0.1140033827   -4.4365910015
H        -6.0241617668   -0.1778916311   -5.0013732106
C        -4.6069150842    1.1526533541   -4.0646076363
C        -5.2816479906    2.3453470983   -4.4094164210
H        -6.2045865671    2.2786845647   -4.9737827874
C        -4.7851940242    3.5632369238   -4.0405968744
H        -5.3102212207    4.4703687407   -4.3100677624
C        -3.5854029983    3.6393258372   -3.3070532822
H        -3.1950787589    4.6060478898   -3.0168757838
C        -2.9129367027    2.5004935655   -2.9615332141
H        -1.9901314989    2.5731259936   -2.3980902860
C        -3.3976724435    1.2200745222   -3.3248900278
C        -2.5111605382   -2.4707952753   -3.0105886367
H        -3.0812537340   -3.3434300768   -3.3298028707
H        -1.5315337303   -2.5265037588   -3.4900394706
H        -2.3433880645   -2.5630104483   -1.9360723000
