90
 Final energy is   -2123.30017722481     
C        -0.0307252909    0.0744257479    0.0826884254
C        -0.0365199910    0.0422063428    1.4989808197
H         0.9028005392    0.0311613857    2.0449980423
C        -1.2211472091    0.0177968692    2.1933675019
C        -2.4567247702    0.0253204901    1.4811761297
C        -2.4733171116    0.0511984897    0.1083103003
H        -3.4196212370    0.0531815644   -0.4229279747
C        -1.2742633558    0.0764317387   -0.6240794128
C        -3.5453536112   -0.0015756275    2.4469626669
C        -4.9153696472   -0.0046148963    2.3611671325
H        -5.4274791032    0.0169026190    1.4069510511
C        -2.9446531945   -0.0271121686    3.7204215960
C        -3.6596905228   -0.0573808240    4.9139884040
C        -1.5376564739   -0.0173741746    3.6241603028
C        -0.8138696469   -0.0404906983    4.7886321014
H         0.2691172249   -0.0351702777    4.7886864937
C        -1.5110856147   -0.0722491528    6.0197987756
H        -0.9356526755   -0.0903752732    6.9365349524
C        -2.8851843263   -0.0805970728    6.0979477196
H        -3.3720494956   -0.1046662019    7.0652592872
C        -5.6653853051   -0.0344202907    3.5587725603
H        -6.7460826561   -0.0361232091    3.4920533789
C        -5.0726495400   -0.0607170019    4.8006810898
H        -5.6880721451   -0.0831945328    5.6917949312
B         1.2660241848    0.1136260019   -0.7208553578
C         1.2696198234    0.1294854432   -2.2462244193
C         2.4732697828    0.1447835044   -2.9940628299
H         3.4312586140    0.1387569484   -2.4818705903
C         2.4429812016    0.1596570009   -4.3665805612
C         1.1878074477    0.1630127129   -5.0436322118
C         0.0106004390    0.1475949310   -4.3389936336
H        -0.9365060117    0.1484245728   -4.8686057441
C         0.0167214112    0.1299278325   -2.9343729546
C         1.4366986865    0.1785563530   -6.4781613923
C         0.6453703590    0.1888502702   -7.6003568944
H        -0.4358599658    0.1889244105   -7.5363334439
C         2.8358344824    0.1820578432   -6.6364487981
C         3.4757429300    0.1939592712   -7.8738899967
C         3.4953586058    0.1710791090   -5.3900536510
C         4.8673724730    0.1717265790   -5.3914387092
H         5.4399350341    0.1632452121   -4.4722700595
C         1.2704209340    0.2015084967   -8.8685302259
H         0.6453696050    0.2100056820   -9.7526805973
C         2.6383368267    0.2037283756   -9.0173271231
H         3.0747052150    0.2132264674  -10.0088302151
C         5.5473717723    0.1833844431   -6.6327703412
H         6.6299284455    0.1838013442   -6.6264930282
C         4.8898949410    0.1943436307   -7.8416047505
H         5.4544618141    0.2032692657   -8.7661993120
B        -1.3081743145    0.0983114215   -2.1593318716
C         2.6409093798    0.1633350734    0.0427714091
C         3.3412683108   -1.0233557012    0.3807520202
C         2.8308636597   -2.2789696071    0.0161489580
H         1.8971487451   -2.3344278535   -0.5301970036
C         3.5108389581   -3.4440568251    0.3468253027
H         3.1038268077   -4.4027504997    0.0563200172
C         4.7057759569   -3.3782026153    1.0483991209
H         5.2321580216   -4.2869229348    1.3070759427
C         5.2323861902   -2.1461776438    1.4220786998
H         6.1654813618   -2.1011287762    1.9699769363
C         4.5645563827   -0.9655832515    1.0945100509
C         5.0750335081    0.3033125020    1.4572458150
H         6.0084195962    0.3587628722    2.0041060390
C         4.4041238466    1.4661054692    1.1201910566
H         4.8214956304    2.4222960309    1.4077682357
C         3.2057705518    1.4235618968    0.4181090354
C         2.4885751228    2.6736641521    0.0475356185
H         3.0245826386    3.5638282841    0.3705208295
H         2.3414032943    2.7234357423   -1.0336329716
H         1.4891311046    2.6861396519    0.4884519864
C        -2.6814516885    0.0632240321   -2.9481987572
C        -3.2410427207   -1.1441950441   -3.3221317752
C        -4.4474992440   -1.1725860675   -4.0573743195
H        -4.8664463639   -2.1315790403   -4.3408715307
C        -5.0900297716   -0.0230265728   -4.4187672290
H        -6.0137110653   -0.0638806967   -4.9844330411
C        -4.5559344720    1.2311704630   -4.0577787444
C        -5.1927383031    2.4418657450   -4.4158699037
H        -6.1163807643    2.3982179689   -4.9817846235
C        -4.6585948734    3.6474592533   -4.0575158898
H        -5.1539940258    4.5683760299   -4.3372100616
C        -3.4580979733    3.6927307025   -3.3205081859
H        -3.0386617885    4.6496944272   -3.0378096462
C        -2.8228259182    2.5361237489   -2.9623128824
H        -1.8999982882    2.5844594538   -2.3961006802
C        -3.3459064418    1.2675644885   -3.3161564264
C        -2.5704966259   -2.4424054353   -2.9661403895
H        -3.1592781637   -3.3016227128   -3.2885321411
H        -1.5867686011   -2.5222611633   -3.4338864749
H        -2.4176220201   -2.5308754832   -1.8889093687
