90
 Final energy is   -2123.31151987651     
C        -0.0572025711    0.0822331049    0.1047073098
C        -0.0735022605    0.0509335871    1.5202877793
H         0.8609396699    0.0274751494    2.0741195002
C        -1.2633639485    0.0411425578    2.2077923002
C        -2.4943594690    0.0598162372    1.4888659950
C        -2.5014062456    0.0773397160    0.1157680498
H        -3.4446486743    0.0844775049   -0.4209783371
C        -1.2963949039    0.0861552329   -0.6083128631
C        -3.5894875071    0.0477659650    2.4487471726
C        -4.9590219928    0.0599647143    2.3551884798
H        -5.4659541059    0.0851622921    1.3982142205
C        -2.9957441697    0.0177908299    3.7254849001
C        -3.7176256824   -0.0033202596    4.9153743740
C        -1.5880437373    0.0113771050    3.6371303979
C        -0.8703323890   -0.0195581855    4.8053832611
H         0.2126162661   -0.0275185139    4.8112534432
C        -1.5749534478   -0.0424216133    6.0330896221
H        -1.0044899871   -0.0671794701    6.9527353844
C        -2.9497629489   -0.0346444867    6.1039360059
H        -3.4422199555   -0.0527097537    7.0685490123
C        -5.7161076596    0.0403608499    3.5491852991
H        -6.7963788533    0.0504670886    3.4765312541
C        -5.1302106177    0.0089896012    4.7945319624
H        -5.7504367263   -0.0056932144    5.6825015877
B         1.2510533217    0.0972422536   -0.6883599430
C         1.2590716078    0.0831649656   -2.2167061425
C         2.4654632408    0.0837207951   -2.9617961573
H         3.4216626487    0.0831052100   -2.4481739959
C         2.4397201519    0.0797837792   -4.3348188503
C         1.1873829606    0.0865602131   -5.0175133362
C         0.0075846173    0.0946806781   -4.3164488062
H        -0.9368779338    0.1002365808   -4.8508283486
C         0.0084502424    0.0934522786   -2.9114880910
C         1.4417550524    0.0815646655   -6.4509401543
C         0.6546385923    0.0847456102   -7.5768666645
H        -0.4268972171    0.0952864362   -7.5176794681
C         2.8418226073    0.0699994522   -6.6030235978
C         3.4868706405    0.0599473429   -7.8381368972
C         3.4964310325    0.0687438940   -5.3537861305
C         4.8688150151    0.0564718684   -5.3490762285
H         5.4374279474    0.0546426405   -4.4274339391
C         1.2851444049    0.0752951797   -8.8425469458
H         0.6639255744    0.0782386600   -9.7294429798
C         2.6541873160    0.0628657122   -8.9854007810
H         3.0949136635    0.0556846504   -9.9750081876
C         5.5536670770    0.0458684373   -6.5880969053
H         6.6361246351    0.0363022103   -6.5771634525
C         4.9011369432    0.0474269274   -7.8002001864
H         5.4693491984    0.0390508163   -8.7225748719
B        -1.3209332988    0.0926518590   -2.1442602945
C         2.6208318254    0.1669557780    0.0822147392
C         3.4461036055   -0.9772355655    0.2383953205
C         3.0638498254   -2.2143333011   -0.3047405684
H         2.1312309456   -2.2899593256   -0.8498745495
C         3.8679498055   -3.3376675906   -0.1544559123
H         3.5566422552   -4.2802642385   -0.5831742332
C         5.0598356229   -3.2510286030    0.5484647892
H         5.6828688149   -4.1267339641    0.6694470078
C         5.4577554720   -2.0385902010    1.1052015929
H         6.3879340120   -1.9768080141    1.6563458103
C         4.6657102403   -0.8998696984    0.9578950107
C         5.0466536256    0.3444095184    1.5140192663
H         5.9760122725    0.4131787459    2.0660212566
C         4.2538029157    1.4680515407    1.3530505269
H         4.5765631070    2.4098701279    1.7774356134
C         3.0601574419    1.4089018956    0.6459066570
C         2.2273670145    2.6298424393    0.4629643777
H         2.7505484690    3.5274882411    0.7866824885
H         1.9336605886    2.7472363086   -0.5820613443
H         1.2983612217    2.5504341766    1.0321693854
C        -2.6913705173    0.0788719724   -2.9396102851
C        -3.2744981671   -1.1187652833   -3.3095961526
C        -4.4796320422   -1.1260387765   -4.0483755319
H        -4.9173665356   -2.0776666596   -4.3283299872
C        -5.0978817509    0.0347587525   -4.4172118497
H        -6.0208220869    0.0100715481   -4.9850625396
C        -4.5388200208    1.2797410231   -4.0606963469
C        -5.1503647786    2.5014840063   -4.4267437628
H        -6.0732756260    2.4733347418   -4.9948881177
C        -4.5926434223    3.6981393902   -4.0729164878
H        -5.0683023570    4.6276253766   -4.3585351335
C        -3.3929892019    3.7226348215   -3.3328405304
H        -2.9547005853    4.6723063763   -3.0539494345
C        -2.7822622000    2.5548305974   -2.9669498429
H        -1.8599949652    2.5886781995   -2.3986377566
C        -3.3301135807    1.2949245260   -3.3156507632
C        -2.6321320738   -2.4291786815   -2.9464105402
H        -3.2414743128   -3.2770277801   -3.2602548868
H        -1.6523091508   -2.5349876398   -3.4172367637
H        -2.4765042990   -2.5136229039   -1.8692526873
