92
 Final energy is   -2123.80112128954     
C         0.0187710420    0.4692526486    0.0847392504
C         0.0136982182    0.3407728498    1.4788427139
H         0.9542945978    0.2328500939    2.0082209826
C        -1.1867063165    0.3455858174    2.1709081752
C        -2.4005331164    0.4813724424    1.4630946644
C        -2.4081306663    0.6010103237    0.0869853314
H        -3.3453027758    0.6918945221   -0.4520550143
C        -1.2045962319    0.5968324010   -0.6169015393
C        -3.5033892661    0.4482787446    2.4167318589
C        -4.8671500606    0.5309448096    2.3187786039
H        -5.3661696591    0.6565144081    1.3656597906
C        -2.9198084142    0.2860349575    3.6842394894
C        -3.6471479388    0.1966756056    4.8647245573
C        -1.5158780434    0.2172028529    3.5945903019
C        -0.8057894763    0.0492120279    4.7524757046
H         0.2749094494   -0.0155280614    4.7561148670
C        -5.6332537188    0.4473840511    3.5041201198
H        -6.7110644021    0.5125866918    3.4302597462
C        -5.0554613137    0.2845775031    4.7413850497
H        -5.6815382770    0.2229902089    5.6230238540
C        -1.5154232438   -0.0446830753    5.9743332760
H        -0.9508139015   -0.1781781993    6.8876071471
C        -2.8868996248    0.0249964053    6.0449339832
H        -3.3831488592   -0.0535552142    7.0043145431
B         1.3605539124    0.4544094294   -0.7047703746
B        -1.2203185496    0.7145336869   -2.1665687553
C         0.1256308173    0.7381882868   -2.9413575056
C         0.1194208769    0.8584153948   -4.3306056982
H        -0.8232275688    0.9498601853   -4.8592202829
C         1.3111650838    0.8466111144   -5.0272727041
C         2.5423363350    0.7179575107   -4.3488486655
C         2.5568762408    0.6037402450   -2.9693206099
H         3.4955602718    0.4980271311   -2.4364977530
C         1.3543265805    0.6111542664   -2.2531514836
C         3.6093212356    0.7087377326   -5.3567479225
C         4.9740526631    0.5956198959   -5.3402693766
H         5.5285558407    0.4931220360   -4.4159953109
C         2.9698625920    0.8306430539   -6.6059149282
C         3.6235546623    0.8412679083   -7.8335468032
C         1.5741392660    0.9205267819   -6.4622692539
C         0.7982606083    1.0299190154   -7.5868414375
H        -0.2813490061    1.0996069602   -7.5336434272
C         5.6705486215    0.6079716235   -6.5732750265
H         6.7486822310    0.5175146357   -6.5557894462
C         5.0324844905    0.7250625627   -7.7854373167
H         5.6093374093    0.7249728803   -8.7022000554
C         1.4371382773    1.0474325643   -8.8487783991
H         0.8258583848    1.1329869214   -9.7378491952
C         2.8025111048    0.9559646794   -8.9819536342
H         3.2494033805    0.9691142972   -9.9685898652
C        -2.5768527536    0.7778860656   -2.9585851106
C        -3.1751867979   -0.3963327718   -3.4180135235
C        -4.3616089627   -0.3514481778   -4.1470664339
H        -4.7947542814   -1.2832090735   -4.4881995882
C        -4.9650504977    0.8670753929   -4.4256328052
O        -6.1132084845    1.0090594478   -5.1213290684
C        -4.3733176262    2.0423320950   -3.9715965239
H        -4.8507596861    2.9890953590   -4.1945343740
C        -3.1939003743    2.0039926316   -3.2475155551
C        -6.7503400760   -0.1432815319   -5.6038793100
H        -7.6470048671    0.1904865131   -6.1221572849
H        -6.1269883242   -0.6985481549   -6.3127002448
H        -7.0477974931   -0.8230582203   -4.7986408141
C        -2.5323590753   -1.7261910818   -3.1360172965
H        -3.1298053680   -2.5555187208   -3.5142666046
H        -1.5454050935   -1.7964636925   -3.5990598368
H        -2.3947121363   -1.8843526440   -2.0642217788
C        -2.5623800286    3.2817077031   -2.7721778493
H        -3.1498759936    4.1550433161   -3.0530735941
H        -1.5622589159    3.4092661830   -3.1927189585
H        -2.4559253200    3.2916250536   -1.6853303973
C         2.7193937449    0.2663277227    0.0486535136
C         3.4280839116    1.3685801838    0.5220826411
C         4.6445436532    1.1974242168    1.1799051919
H         5.1692072538    2.0745903068    1.5364856502
C         5.1612460838   -0.0781018092    1.3674529777
O         6.3281757105   -0.3428219986    1.9927231259
C         4.4566796177   -1.1819368405    0.8936687836
H         4.8694758030   -2.1721383750    1.0460945202
C         3.2474987802   -1.0181684665    0.2401629565
C         7.0682105103    0.7304179433    2.5071319710
H         7.9558626071    0.3037211335    2.9697344272
H         6.5151831553    1.2901165395    3.2688906918
H         7.3860834806    1.4297846528    1.7267708050
C         2.4946436907   -2.2139416638   -0.2742650588
H         2.9995460487   -3.1483447631   -0.0315589401
H         2.3806094428   -2.1740581061   -1.3601495925
H         1.4888471126   -2.2642690745    0.1493799005
C         2.8750563500    2.7509035782    0.3106919271
H         3.5144955322    3.5184686662    0.7457640574
H         2.7687745919    2.9767438188   -0.7529413049
H         1.8841855632    2.8573496883    0.7582621814
