92
 Final energy is   -2123.69993831988     
C         2.4818486051   -1.5921491003    0.3720246794
C         3.4535593709   -1.2815065332   -0.6282716187
B         4.4695471232   -2.3510390178   -1.0110801503
C         4.5060157498   -3.7121796096   -0.3251515299
C         3.5211608755   -4.0126880781    0.6636338384
B         2.4607013064   -2.9711583101    1.0553121716
C         5.4366195597   -4.7081664924   -0.6957346191
C         5.3843693821   -5.9577896654   -0.1334348172
C         4.3810304551   -6.2661504370    0.8304695584
C         3.4837639234   -5.3009626402    1.2230486200
C         1.4750178894   -0.6561930238    0.6572737690
C         1.4108581296    0.5399270376   -0.0184055386
C         2.3930747225    0.8634577515   -0.9987457037
C         3.3890857819   -0.0351102565   -1.2910132614
C         7.2015066200   -7.5163710380   -1.2066871658
C         7.6545459376   -8.8550466709   -1.2073722320
C         7.0798806523   -9.8301861176   -0.4259992552
C         5.9947178568   -9.5087585187    0.4233217702
C         5.5832982597   -8.1781819520    0.4184181037
C         6.1566695747   -7.1740814921   -0.3858818885
C         5.2584886818  -10.3898010407    1.2518446483
C         4.1975861456   -9.9144250216    1.9866743267
C         3.7981857398   -8.5586652696    1.9595772491
C         4.4993845748   -7.6808182306    1.1702506032
C         1.8189014608    4.1097966905   -2.9552530323
C         2.5299828757    2.9427697778   -2.5937254064
C         2.0243135895    2.1467198961   -1.5975428284
C         0.8187440958    2.5372202009   -0.9803201878
C         0.0826058296    3.6643290264   -1.3334657860
C         0.6320960873    4.4693113553   -2.3596187019
C         0.4078729515    1.5957374275   -0.0154322979
C        -0.7876822579    1.7957490746    0.6277655813
C        -1.5502903054    2.9378651767    0.2952409845
C        -1.1437189761    3.8504005132   -0.6503732969
C         7.5509592341   -1.3826071505   -3.1623825156
C         6.7312690177   -1.5686883243   -2.0802862188
C         5.4162435600   -2.1234029441   -2.2447744238
C         4.9741422546   -2.4932120010   -3.5579099722
C         5.7995696199   -2.3000026374   -4.6266492647
C         7.0918914790   -1.7430955851   -4.4455062979
C         7.1759061276   -1.2105333868   -0.7043082567
C         3.6149444762   -3.0869183712   -3.7322601359
O         7.7921083950   -1.6023805670   -5.5433032076
C         9.1053391474   -1.0622173258   -5.5132338499
C         0.5054859121   -3.4185262508    4.3708638627
C         1.5037877372   -3.1007500083    3.4645972689
C         1.3288021846   -3.3377455094    2.0929047382
C         0.1262926020   -3.9065098215    1.6678667085
C        -0.8775633311   -4.2235678895    2.5825264122
C        -0.6914268609   -3.9783592428    3.9355820568
C         2.7910738031   -2.4966570488    3.9500352463
C        -0.0978500608   -4.1878380403    0.2071375212
O        -1.6089093795   -4.2476656293    4.8932457145
C        -2.8451183882   -4.7751431695    4.5005604297
H         6.1889729851   -4.5030426348   -1.4518067441
H         2.7142373823   -5.5321438147    1.9525776041
H         0.7192425479   -0.9104995262    1.3933458310
H         4.1114897380    0.2071692762   -2.0651147466
H         7.6768570016   -6.7936519972   -1.8581314888
H         8.4782226739   -9.1228103434   -1.8569766486
H         7.4506631535  -10.8471516832   -0.4699728604
H         5.5221530105  -11.4394442400    1.2979195553
H         3.6391130303  -10.6040517482    2.6069193896
H         2.9460930897   -8.2414487063    2.5475673313
H         2.2189155250    4.7347796831   -3.7435500108
H         3.4451974190    2.6926763907   -3.1159165037
H         0.1134352467    5.3630332326   -2.6844064302
H        -1.1620600453    1.0962870285    1.3648839621
H        -2.4957884657    3.0919931729    0.7995478324
H        -1.7684808314    4.7046680891   -0.8805936123
H         8.5379608116   -0.9637960891   -3.0241037408
H         5.4951006608   -2.5645627020   -5.6311011379
H         8.1797464916   -0.7898061229   -0.6924322461
H         7.1550843727   -2.0916099630   -0.0608706554
H         6.4867821783   -0.4925215448   -0.2573417593
H         3.4104777765   -3.3242438100   -4.7749933731
H         2.8468228755   -2.4012418798   -3.3742518198
H         3.5174624171   -3.9985625723   -3.1421443521
H         9.4500679625   -1.0603083702   -6.5421577737
H         9.7729533018   -1.6798306499   -4.9113197461
H         9.1034568187   -0.0402304395   -5.1325079751
H         0.6420416339   -3.2310209842    5.4293714553
H        -1.7971036119   -4.6600205741    2.2127581353
H         2.9823419386   -1.5366646481    3.4664626274
H         3.6404763231   -3.1421011933    3.7167819044
H         2.7821929344   -2.3327983607    5.0274650757
H         0.6324244091   -4.9045355576   -0.1744671539
H         0.0048627651   -3.2816879846   -0.3930894480
H        -1.0911794603   -4.5970571670    0.0205367238
H        -3.4342018465   -4.8999635131    5.4073157544
H        -3.3885238886   -4.1068602717    3.8237025369
H        -2.7484391240   -5.7519372895    4.0141791057
