   92
FINAL HEAT OF FORMATION = -2123.697761
 C     2.516481    -1.587850     0.410642
 C     3.478577    -1.276553    -0.598961
 B     4.497837    -2.341538    -0.985356
 C     4.546149    -3.700691    -0.293627
 C     3.570593    -4.002162     0.704793
 B     2.509242    -2.962682     1.103470
 C     5.477273    -4.694417    -0.669346
 C     5.431669    -5.943823    -0.105965
 C     4.435512    -6.254478     0.863756
 C     3.536966    -5.292101     1.260960
 C     1.504088    -0.657880     0.694271
 C     1.422247     0.529751     0.005742
 C     2.393888     0.853467    -0.984565
 C     3.398143    -0.036910    -1.273210
 C     7.245132    -7.497511    -1.192329
 C     7.702763    -8.834660    -1.195190
 C     7.137720    -9.810700    -0.407482
 C     6.058327    -9.491695     0.450015
 C     5.642871    -8.162467     0.447347
 C     6.206751    -7.157609    -0.362233
 C     5.330083   -10.374797     1.283254
 C     4.271107    -9.902779     2.023542
 C     3.866477    -8.548510     1.997127
 C     4.560991    -7.668606     1.204030
 C     1.768088     4.069595    -2.975193
 C     2.495160     2.915150    -2.605038
 C     2.006712     2.126053    -1.594573
 C     0.801709     2.510164    -0.972635
 C     0.050185     3.624482    -1.333639
 C     0.582099     4.423155    -2.373775
 C     0.407766     1.574698     0.004833
 C    -0.785899     1.768435     0.653935
 C    -1.563211     2.898668     0.314834
 C    -1.173194     3.805122    -0.643920
 C     7.538723    -1.411118    -3.212748
 C     6.747840    -1.596005    -2.108971
 C     5.418778    -2.125140    -2.240901
 C     4.934855    -2.479247    -3.543671
 C     5.731115    -2.285336    -4.634554
 C     7.036140    -1.749461    -4.485301
 C     7.241720    -1.269631    -0.741541
 C     3.562554    -3.051125    -3.685448
 O     7.709106    -1.608162    -5.599609
 C     9.031645    -1.092177    -5.592940
 C     0.490636    -3.557823     4.372381
 C     1.528187    -3.238230     3.507177
 C     1.358013    -3.336088     2.120483
 C     0.119610    -3.775700     1.635486
 C    -0.917188    -4.096936     2.507219
 C    -0.736317    -3.981630     3.879859
 C     2.837898    -2.788496     4.096249
 C    -0.120575    -3.881372     0.154097
 O    -1.688481    -4.264592     4.799126
 C    -2.950835    -4.668934     4.348643
 H     6.222534    -4.490231    -1.432723
 H     2.770064    -5.527844     1.991281
 H     0.755287    -0.911411     1.437443
 H     4.113437     0.205188    -2.053914
 H     7.711844    -6.773944    -1.849077
 H     8.521616    -9.100687    -1.851606
 H     7.511335   -10.826541    -0.453350
 H     5.597900   -11.423422     1.328596
 H     3.718414   -10.594058     2.647122
 H     3.015490    -8.233854     2.588055
 H     2.154236     4.688971    -3.774767
 H     3.408462     2.668109    -3.132011
 H     0.050593     5.306925    -2.704937
 H    -1.147416     1.072706     1.400966
 H    -2.506751     3.048147     0.824229
 H    -1.808819     4.649933    -0.879228
 H     8.537035    -1.011567    -3.099740
 H     5.393803    -2.535208    -5.632295
 H     8.238921    -0.833075    -0.756656
 H     7.262195    -2.170846    -0.126185
 H     6.559934    -0.578364    -0.244385
 H     3.347207    -3.328436    -4.716226
 H     2.812317    -2.331588    -3.356166
 H     3.447805    -3.933202    -3.055414
 H     9.356193    -1.088918    -6.628575
 H     9.699291    -1.726214    -5.008071
 H     9.055967    -0.073021    -5.204840
 H     0.625876    -3.478949     5.445190
 H    -1.857466    -4.439377     2.092998
 H     3.563719    -2.521715     3.329045
 H     3.285846    -3.574337     4.707773
 H     2.703813    -1.915963     4.738023
 H     0.710587    -4.375322    -0.350658
 H    -0.226437    -2.894298    -0.303273
 H    -1.026903    -4.445099    -0.068994
 H    -3.564772    -4.822353     5.234428
 H    -3.432691    -3.911481     3.720702
 H    -2.914433    -5.608734     3.786829
