  174
FINAL HEAT OF FORMATION = -3629.161031
 C    -6.117294     3.896772     2.179422
 C    -6.602945     2.544916     2.399356
 B    -5.709856     1.325872     2.148442
 C    -4.260860     1.585618     1.736355
 C    -3.767580     2.935437     1.522227
 B    -4.689003     4.145162     1.689195
 C    -2.442081     3.086909     1.123239
 C    -1.578165     2.026843     0.886866
 C    -2.076868     0.684447     1.082995
 C    -3.385126     0.528888     1.515161
 C    -7.022534     4.946034     2.324535
 C    -8.354989     4.777600     2.670794
 C    -8.835565     3.430756     2.895112
 C    -7.940730     2.383134     2.742614
 H    -6.648720     5.941216     2.124945
 C    -6.327108    -0.126934     2.204905
 C    -4.245095     5.591684     1.252403
 C    -6.611321    -0.814414     1.012030
 C    -7.232038    -2.056231     1.059285
 C    -7.621653    -2.610013     2.262640
 C    -7.339174    -1.949962     3.444548
 C    -6.676242    -0.727544     3.427195
 C    -6.325152    -0.086322     4.744798
 C    -6.330597    -0.227217    -0.348728
 H    -7.464417    -2.583830     0.140794
 N    -8.352940    -3.828951     2.267551
 H    -7.636302    -2.398414     4.385645
 C    -4.848467    -0.233726     5.098951
 H    -6.925013    -0.545244     5.532953
 H    -6.594770     0.971783     4.742230
 C    -7.368451     0.803255    -0.784644
 H    -6.316590    -1.038726    -1.079319
 H    -5.335518     0.218661    -0.384167
 C    -4.008435     6.598938     2.202361
 C    -3.668655     7.880745     1.784434
 C    -3.545002     8.169538     0.437644
 C    -3.763323     7.181606    -0.502994
 C    -4.120171     5.896796    -0.113799
 C    -4.381972     4.875082    -1.194156
 C    -4.088781     6.317215     3.681502
 H    -3.486021     8.663604     2.511759
 N    -3.190291     9.475634     0.014691
 H    -3.660501     7.425017    -1.554494
 H    -3.941620     5.239087    -2.124480
 C    -5.861278     4.588521    -1.439887
 H    -3.863900     3.940691    -0.969233
 H    -5.019646     5.796571     3.919367
 H    -4.135390     7.266814     4.217505
 C    -2.908115     5.507661     4.210011
 C    -0.215021     2.222150     0.430987
 C   -10.225326     3.204814     3.242286
 C   -10.715757     1.911053     3.492612
 C     1.584741     3.739798    -0.219794
 C     2.389602     2.625307    -0.469191
 C   -12.897908     2.751897     3.892509
 C   -12.030820     1.659331     3.818052
 C   -12.523859     0.270234     4.087375
 H    -3.775829    -0.465947     1.684906
 C     0.302003     3.510578     0.225128
 H    -2.090491     4.100136     0.981164
 C    -1.221487    -0.453684     0.806053
 C     0.391130    -2.655444     0.245134
 C    -0.915731    -2.875676     0.686827
 C    -1.690111    -1.769381     0.957132
 C    -1.452293    -4.265560     0.851927
 H    -2.705281    -1.940838     1.288716
 H    -8.292754     1.368490     2.869750
 H   -10.044758     1.064262     3.440772
 C    -9.277922     5.891696     2.785363
 C    -8.850243     7.214178     2.585919
 C    -9.699268     8.295836     2.675399
 C   -11.039713     8.042576     2.973956
 C    -9.210662     9.695619     2.464014
 H    -7.810903     7.407615     2.357193
 C   -10.629266     5.656315     3.096943
 C     0.606154     1.110774     0.170628
 C     0.093716    -0.250014     0.356294
 C   -11.111313     4.292552     3.332402
 C     1.906157     1.349767    -0.278426
 C     0.874664    -1.376075     0.086077
 H     1.033277    -3.498279     0.018956
 H     1.890803    -1.261380    -0.263386
 H    -0.325787     4.370495     0.413682
 C     2.099531     5.130036    -0.436287
 H     3.405177     2.760652    -0.821274
 H     2.566721     0.521055    -0.491304
 C   -11.484906     6.755831     3.179251
 H   -12.530353     6.613052     3.413516
 H   -11.740157     8.865449     3.051874
 C   -12.443750     4.029773     3.655968
 H   -13.940181     2.595821     4.144309
 H   -13.155019     4.839754     3.733186
 H     2.970817     5.334336     0.186458
 H     1.344173     5.878746    -0.203909
 H     2.403434     5.285521    -1.471478
 H    -1.428114    -4.816561    -0.088477
 H    -2.483675    -4.259783     1.199213
 H    -0.865446    -4.837183     1.571299
 H   -12.933525     0.181754     5.093896
 H   -13.320107    -0.010167     3.396884
 H   -11.732573    -0.470339     3.992567
 H    -9.382047    10.314655     3.344753
 H    -8.143911     9.724087     2.251262
 H    -9.727878    10.175879     1.632536
 H    -5.983442     3.896956    -2.272987
 H    -6.404452     5.501495    -1.681974
 H    -6.344834     4.141204    -0.573814
 H    -7.156980     1.161078    -1.791728
 H    -7.386193     1.668916    -0.124964
 H    -8.370512     0.374636    -0.786995
 H    -2.859711     4.517761     3.759636
 H    -2.985130     5.371305     5.288038
 H    -1.963232     6.009307     4.003201
 H    -4.204848     0.260379     4.372520
 H    -4.557424    -1.283202     5.133642
 H    -4.638402     0.203217     6.074420
 C    -4.191932    10.367293    -0.328949
 C    -3.878175    11.661898    -0.750976
 C    -2.448290    12.164625    -0.856515
 C    -1.451422    11.083735    -0.469470
 C    -2.274551    13.370251     0.078912
 C    -2.179970    12.588925    -2.310155
 C    -1.847888     9.803521    -0.074594
 H    -2.304039    11.745173    -2.987019
 H    -1.167084    12.971981    -2.430074
 H    -2.865808    13.374744    -2.625811
 C    -4.927999    12.507190    -1.092072
 C    -6.253192    12.116735    -1.036522
 C    -6.548133    10.830178    -0.615323
 C    -5.532941     9.967326    -0.257074
 H    -5.778619     8.966357     0.069643
 H    -7.038570    12.803052    -1.321746
 H    -7.574178    10.488522    -0.564775
 H    -4.699777    13.512808    -1.423628
 C    -0.089475    11.354234    -0.521406
 C    -0.880949     8.837232     0.225099
 C     0.462925     9.139711     0.157757
 C     0.872878    10.410110    -0.213469
 H    -1.188486     7.842070     0.513761
 H     1.189464     8.374441     0.400331
 H     0.234469    12.344258    -0.818203
 H     1.922662    10.663417    -0.265299
 C    -9.713559    -3.780933     2.001238
 C    -7.696955    -5.027870     2.507322
 C    -8.403029    -6.235502     2.529121
 C    -9.896050    -6.323470     2.259887
 C   -10.479929    -4.950536     1.976900
 C   -10.131379    -7.232253     1.041165
 C   -10.337976    -2.552609     1.746964
 C   -11.684444    -2.484766     1.450997
 C   -12.451795    -3.637065     1.416363
 C   -11.834871    -4.843656     1.684841
 H   -12.434705    -5.745490     1.660479
 H   -12.129803    -1.520122     1.244981
 H   -13.507122    -3.600487     1.183497
 H    -9.759334    -1.640284     1.765060
 C    -6.313523    -5.039526     2.717318
 C    -5.643308    -6.219267     2.970681
 C    -6.333864    -7.419435     3.015550
 C    -7.696945    -7.403671     2.789856
 H    -8.237004    -8.342676     2.815039
 H    -5.760444    -4.112148     2.682815
 H    -4.573664    -6.194140     3.134261
 H    -5.822973    -8.350860     3.217149
 H    -2.466376    13.087256     1.112631
 H    -2.963323    14.172789    -0.181765
 H    -1.263888    13.773279     0.021188
 H    -9.641241    -6.833332     0.154812
 H   -11.193938    -7.330276     0.819352
 H    -9.742780    -8.235488     1.215599
 C   -10.602203    -6.926203     3.485513
 H   -10.455749    -6.303583     4.366045
 H   -10.219400    -7.921156     3.710672
 H   -11.674577    -7.021501     3.316589
