92
 Final energy is   -2123.70796701679     
C         0.0002916392   -0.3942296061    0.0620767538
C        -0.0006910342   -0.3669408619    1.4723268797
H         0.9467603766   -0.4084359125    1.9981607700
C        -1.1823425228   -0.2928957840    2.1640558338
C        -2.4384409896   -0.2319011501    1.4411727681
C        -2.4639542527   -0.2568301034    0.0719271290
H        -3.4060203680   -0.2147032634   -0.4637588494
C        -1.2684742078   -0.3434236064   -0.6566379594
C        -3.5118307471   -0.1593014922    2.4054751717
C        -4.8815902722   -0.0829106720    2.3200360951
H        -5.3928667542   -0.0600329830    1.3659796003
C        -2.9044863227   -0.1834150094    3.6776098984
C        -3.6164006148   -0.1383852127    4.8732924569
C        -1.4978413368   -0.2630386741    3.5821775052
C        -0.7706024848   -0.2994434321    4.7460290818
H         0.3097618199   -0.3624344898    4.7408471135
C        -1.4655300830   -0.2551948852    5.9738049402
H        -0.8918530970   -0.2851271272    6.8906591815
C        -2.8386441383   -0.1769464721    6.0530692655
H        -3.3214774600   -0.1462474782    7.0218078592
C        -5.6232405619   -0.0346477284    3.5168722797
H        -6.7021377883    0.0250889426    3.4563921867
C        -5.0247576932   -0.0614368378    4.7581902983
H        -5.6385204493   -0.0233618630    5.6495758423
B         1.3247263053   -0.4851722016   -0.7046914740
C         1.2812900659   -0.5259442030   -2.2359547384
C         2.4810753675   -0.6072103693   -2.9737317999
H         3.4241621563   -0.6375222249   -2.4397038525
C         2.4510820195   -0.6479381392   -4.3435375747
C         1.1781126018   -0.6073163776   -5.0368943563
C         0.0001531894   -0.5318186830   -4.3444329368
H        -0.9472240857   -0.5068166137   -4.8715833522
C         0.0072471441   -0.4864982941   -2.9427099084
C         1.4343946677   -0.6617006167   -6.4585772463
C         0.6451180160   -0.6557026216   -7.5843755359
H        -0.4342994505   -0.5988841354   -7.5233996518
C         2.8343404812   -0.7360066512   -6.6055588085
C         3.4775324063   -0.8070001120   -7.8399845130
C         3.4927894282   -0.7316618854   -5.3566242758
C         4.8643768623   -0.8039244330   -5.3496182039
H         5.4300027983   -0.8073024371   -4.4270521985
C         1.2738436899   -0.7255811784   -8.8438470775
H         0.6563492382   -0.7206907394   -9.7326749625
C         2.6427335654   -0.7998012421   -8.9824345063
H         3.0803996204   -0.8521622390   -9.9717460015
C         5.5427165523   -0.8764200992   -6.5856412686
H         6.6232105728   -0.9331600004   -6.5767070961
C         4.8882754837   -0.8788699849   -7.7975132267
H         5.4562128719   -0.9368817646   -8.7178157756
B        -1.3198476445   -0.3936022431   -2.1862207657
C         2.7011536721   -0.5443744496    0.0571784098
C         3.2686742879   -1.7769930107    0.4152168725
C         4.4778537809   -1.8249050704    1.0882389129
H         4.9155994404   -2.7763418905    1.3666120825
C         5.1509744462   -0.6523161066    1.4191425481
O         6.3218598150   -0.8056789876    2.0759944149
C         4.6021661446    0.5735032034    1.0672751131
H         5.1018863423    1.5028221682    1.3093612425
C         3.3848747005    0.6254447690    0.3895325430
C         7.0431817564    0.3423948864    2.4288514651
H         7.9444407194    0.0015303443    2.9346711745
H         6.4861798620    0.9908847445    3.1135076078
H         7.3381179503    0.9344016723    1.5559330447
C         2.8029995919    1.9592596072    0.0101723159
H         3.4404534444    2.7864733698    0.3223985497
H         2.6636082863    2.0376210577   -1.0701622044
H         1.8208375804    2.1085011989    0.4636082417
C         2.5568467961   -3.0538540217    0.0627402026
H         3.1028780634   -3.9318869553    0.4070580763
H         2.4227386804   -3.1493342833   -1.0169669310
H         1.5591243799   -3.0889662663    0.5055441829
C        -2.6900530879   -0.3604572138   -2.9721435552
C        -3.3634827513   -1.5434672772   -3.2858024790
C        -4.5555738526   -1.5211362658   -4.0087590279
H        -5.0445203674   -2.4611757928   -4.2312310958
C        -5.0933478811   -0.3138564844   -4.4310633721
O        -6.2401279175   -0.1919713894   -5.1355173873
C        -4.4315960867    0.8713663178   -4.1254552967
H        -4.8576245884    1.8097618455   -4.4603643543
C        -3.2475545289    0.8532675232   -3.4071734377
C        -6.9511900952   -1.3551938680   -5.4607590549
H        -7.8313421701   -1.0375971688   -6.0164831271
H        -6.3709674697   -2.0369616689   -6.0917402790
H        -7.2816274224   -1.9044845220   -4.5726636473
C        -2.5474183596    2.1470457670   -3.1012049403
H        -3.1091122135    3.0074461920   -3.4642732453
H        -1.5574890766    2.1794203485   -3.5613438508
H        -2.3991735104    2.2754719943   -2.0272802485
C        -2.7970136885   -2.8681295436   -2.8542506896
H        -3.4449404557   -3.6981545684   -3.1366360825
H        -1.8181022597   -3.0460661357   -3.3041350261
H        -2.6587096693   -2.9097276602   -1.7722766577
