92
 Final energy is   -2123.72063813403     
C         2.4762678102   -1.5847476016    0.3783304514
C         3.4518515411   -1.2731832152   -0.6176877669
B         4.4735926663   -2.3390818654   -1.0041102200
C         4.5067718179   -3.7002266845   -0.3132070092
C         3.5187026060   -4.0057874675    0.6706413371
B         2.4554213446   -2.9653334133    1.0592601272
C         5.4427541122   -4.6931895834   -0.6834541365
C         5.3907374145   -5.9439004874   -0.1248707750
C         4.3833568837   -6.2585191004    0.8348237802
C         3.4817623908   -5.2981260066    1.2269681675
C         1.4666459686   -0.6473386960    0.6613968159
C         1.4071560041    0.5490521902   -0.0129342611
C         2.3947856766    0.8728642806   -0.9897697542
C         3.3913502146   -0.0249950653   -1.2799882668
C         7.2169317512   -7.4947694246   -1.1958229866
C         7.6741349595   -8.8330612672   -1.1982080113
C         7.0993809105   -9.8127778167   -0.4213990821
C         6.0095209677   -9.4963444390    0.4248189077
C         5.5939019137   -8.1666116455    0.4220743869
C         6.1676835717   -7.1583702843   -0.3774138205
C         5.2726804371  -10.3829372260    1.2482405073
C         4.2069655300   -9.9128603627    1.9806087775
C         3.8030781380   -8.5573092833    1.9556558902
C         4.5049743999   -7.6750058314    1.1713112395
C         1.8332171533    4.1245050154   -2.9438495940
C         2.5411816212    2.9546813086   -2.5814979008
C         2.0296073266    2.1584873351   -1.5878642624
C         0.8222109628    2.5502898603   -0.9742959760
C         0.0895864721    3.6798992849   -1.3285728146
C         0.6444065666    4.4860477394   -2.3518029789
C         0.4053130765    1.6078688248   -0.0122001296
C        -0.7924918732    1.8092517506    0.6271716621
C        -1.5519480596    2.9544424591    0.2933936709
C        -1.1396826866    3.8680015050   -0.6496196888
C         7.5533006049   -1.4043047297   -3.1750961736
C         6.7381041569   -1.5749063553   -2.0895152010
C         5.4146344998   -2.1179699936   -2.2442741732
C         4.9585913401   -2.4887352183   -3.5547122764
C         5.7802275533   -2.3104117887   -4.6273498188
C         7.0826388630   -1.7682989773   -4.4555674565
C         7.1942464631   -1.2127374174   -0.7180455875
C         3.5920187905   -3.0685719413   -3.7207685494
O         7.7763150910   -1.6453152097   -5.5537535245
C         9.1043247083   -1.1235384463   -5.5406700429
C         0.4919514437   -3.4325329709    4.3708330245
C         1.4908128943   -3.1047997750    3.4669617412
C         1.3202070375   -3.3369214411    2.0937423097
C         0.1206667323   -3.9100410994    1.6645298351
C        -0.8837863901   -4.2377146107    2.5760771442
C        -0.7015684286   -3.9980516875    3.9312375809
C         2.7735980041   -2.4965229739    3.9599305327
C        -0.1011552572   -4.1867091638    0.2023042141
O        -1.6191855637   -4.2781524923    4.8856331569
C        -2.8550830869   -4.8132930126    4.4869784968
H         6.1963301440   -4.4786373196   -1.4365189471
H         2.7105513973   -5.5366886992    1.9524294470
H         0.7063295396   -0.8998483754    1.3935297982
H         4.1197484597    0.2131110995   -2.0505582846
H         7.6922542433   -6.7686961885   -1.8438398639
H         8.5010656378   -9.0961248635   -1.8457519957
H         7.4732219973  -10.8286931210   -0.4666186619
H         5.5398495008  -11.4319337322    1.2920872880
H         3.6479962502  -10.6058052599    2.5968747825
H         2.9474536181   -8.2449461323    2.5414346679
H         2.2377015860    4.7494965811   -3.7299773974
H         3.4577040695    2.7029631275   -3.1009623146
H         0.1285808494    5.3813801652   -2.6770667368
H        -1.1716494335    1.1097093504    1.3620176893
H        -2.4990419165    3.1095415196    0.7946273752
H        -1.7615701669    4.7242157704   -0.8810865286
H         8.5461777096   -0.9954240254   -3.0454955151
H         5.4666628198   -2.5774686044   -5.6292553236
H         8.2005659448   -0.7982211590   -0.7167987024
H         7.1744604403   -2.0903936818   -0.0686544945
H         6.5137205250   -0.4870755115   -0.2685377413
H         3.3837512919   -3.3105072345   -4.7616937511
H         2.8300679978   -2.3726665623   -3.3671279217
H         3.4841944816   -3.9763995125   -3.1251405323
H         9.4383206567   -1.1407491217   -6.5729479945
H         9.7629778793   -1.7467130340   -4.9355412140
H         9.1170396746   -0.0976359628   -5.1722439193
H         0.6277322921   -3.2478176137    5.4303887707
H        -1.8005066806   -4.6776149533    2.2030984176
H         2.9643084029   -1.5350543701    3.4789952947
H         3.6268721357   -3.1381690022    3.7299363715
H         2.7587337037   -2.3346145606    5.0376624296
H         0.6304792657   -4.9010032460   -0.1813745459
H         0.0016125127   -3.2787878252   -0.3952871255
H        -1.0937149126   -4.5965951195    0.0132357483
H        -3.4445215003   -4.9457569552    5.3921028907
H        -3.3993636250   -4.1442576008    3.8127004594
H        -2.7490068385   -5.7864657480    3.9968955627
