92
 Final energy is   -2123.73208118765     
C         2.4712577238   -1.5887274574    0.3743441826
C         3.4473064751   -1.2779371853   -0.6227149293
B         4.4697097092   -2.3434193651   -1.0117987932
C         4.5012493094   -3.7036275056   -0.3175993327
C         3.5131433675   -4.0092980277    0.6673623164
B         2.4503344904   -2.9686852377    1.0561184635
C         5.4385985188   -4.6956173331   -0.6864009932
C         5.3881231580   -5.9462316848   -0.1262605370
C         4.3801220697   -6.2616437618    0.8333836051
C         3.4772132724   -5.3020585805    1.2244585102
C         1.4625339723   -0.6495283857    0.6580357135
C         1.4049599278    0.5475344378   -0.0153069765
C         2.3934553902    0.8705174104   -0.9924097488
C         3.3885464902   -0.0292639716   -1.2840289606
C         7.2180180440   -7.4948089103   -1.1945498474
C         7.6774178790   -8.8327284088   -1.1949059238
C         7.1037506362   -9.8131060498   -0.4174052020
C         6.0123371131   -9.4974532749    0.4277480074
C         5.5943133297   -8.1681218569    0.4233704080
C         6.1672019970   -7.1595944209   -0.3769468249
C         5.2762575375  -10.3848823008    1.2514184179
C         4.2086913622   -9.9159986450    1.9826935701
C         3.8022861458   -8.5609154012    1.9562188383
C         4.5036632313   -7.6779528283    1.1714423520
C         1.8386227576    4.1258316551   -2.9426560997
C         2.5443199771    2.9536392667   -2.5822148137
C         2.0308827152    2.1574815905   -1.5889068430
C         0.8244163314    2.5513794400   -0.9741558697
C         0.0942147809    3.6834719044   -1.3268698670
C         0.6505900330    4.4898642260   -2.3495970275
C         0.4052580922    1.6088115980   -0.0128651057
C        -0.7921532366    1.8123009426    0.6274775588
C        -1.5490087892    2.9600049398    0.2951922481
C        -1.1346254730    3.8739069296   -0.6472265686
C         7.5535077834   -1.3989221767   -3.1746710427
C         6.7356566969   -1.5716681646   -2.0921816066
C         5.4151175961   -2.1189588897   -2.2508118661
C         4.9626580420   -2.4905293506   -3.5610616694
C         5.7857854695   -2.3111310890   -4.6322754334
C         7.0874132252   -1.7650653771   -4.4574458100
C         7.1893469117   -1.2063518488   -0.7200507318
C         3.5971345575   -3.0728972349   -3.7325491274
O         7.7821296909   -1.6408243900   -5.5516265090
C         9.1108637669   -1.1135422210   -5.5386797031
C         0.4920711133   -3.4322725135    4.3732402553
C         1.4894561657   -3.1054691641    3.4665470284
C         1.3164292082   -3.3390367078    2.0936998313
C         0.1154480957   -3.9128787528    1.6680567594
C        -0.8876105612   -4.2397488259    2.5819764235
C        -0.7027807823   -3.9984572174    3.9368389886
C         2.7728435750   -2.4969218813    3.9581193821
C        -0.1104608334   -4.1918337328    0.2067889400
O        -1.6184411168   -4.2773987370    4.8930472587
C        -2.8571531309   -4.8138960656    4.4970625990
H         6.1918791665   -4.4806165247   -1.4392561028
H         2.7063598803   -5.5425583581    1.9497442693
H         0.7012048941   -0.9000207584    1.3898992160
H         4.1168567699    0.2080034867   -2.0546161980
H         7.6925156950   -6.7686346527   -1.8430362805
H         8.5052842364   -9.0947703636   -1.8416578961
H         7.4792531043  -10.8284854940   -0.4612165598
H         5.5453663685  -11.4333716962    1.2961891322
H         3.6503207586  -10.6094226543    2.5990038488
H         2.9454443475   -8.2498844320    2.5410791946
H         2.2443998872    4.7505548717   -3.7283217150
H         3.4598897125    2.7001912968   -3.1025113805
H         0.1366290366    5.3867656154   -2.6735335256
H        -1.1731011154    1.1129957179    1.3617446763
H        -2.4956207578    3.1167797085    0.7968661117
H        -1.7543860547    4.7319605507   -0.8777287374
H         8.5448992506   -0.9870806273   -3.0430686880
H         5.4745177028   -2.5793572575   -5.6346387457
H         8.1944580148   -0.7892806414   -0.7199354747
H         7.1737747114   -2.0831721679   -0.0695561784
H         6.5081289496   -0.4802575810   -0.2724474674
H         3.3941698563   -3.3142605250   -4.7745692821
H         2.8319009293   -2.3782617088   -3.3834702159
H         3.4878353757   -3.9822362357   -3.1394953722
H         9.4440950552   -1.1313496245   -6.5709694730
H         9.7688439633   -1.7348219335   -4.9315367894
H         9.1171086901   -0.0878717761   -5.1705496690
H         0.6312654046   -3.2457255363    5.4322426674
H        -1.8052046618   -4.6800663284    2.2115525494
H         2.9642936882   -1.5363939190    3.4755614279
H         3.6259345794   -3.1392050260    3.7290639406
H         2.7583887143   -2.3332730203    5.0355846225
H         0.6195943268   -4.9072767142   -0.1778552826
H        -0.0081095502   -3.2852352686   -0.3929058487
H        -1.1038105899   -4.6011609399    0.0210927853
H        -3.4443423983   -4.9451547418    5.4036448596
H        -3.4017481217   -4.1451911718    3.8232899052
H        -2.7509546322   -5.7871549758    4.0079887814
