92
 Final energy is   -2123.70095796172     
C        -0.0105285347   -0.4467387903    0.0878372274
C        -0.0188237142   -0.4340159918    1.5047782644
H         0.9175716997   -0.4964207393    2.0537248735
C        -1.2020001444   -0.3516403348    2.1959103429
C        -2.4318438585   -0.2705096262    1.4803067056
C        -2.4439854871   -0.2847787021    0.1071391704
H        -3.3836351479   -0.2270607632   -0.4331313941
C        -1.2471646156   -0.3785466076   -0.6209750025
C        -3.5203657930   -0.1933518418    2.4425870035
C        -4.8862728662   -0.1000694998    2.3529580219
H        -5.3934359659   -0.0616758030    1.3967770954
C        -2.9261752540   -0.2367876741    3.7182451892
C        -3.6438136705   -0.1964456323    4.9092840114
C        -1.5225750219   -0.3324775110    3.6263049551
C        -0.8059204260   -0.3911002781    4.7930281883
H         0.2742508838   -0.4689978022    4.7963617783
C        -1.5053312253   -0.3520387695    6.0219368389
H        -0.9353220321   -0.4002177344    6.9409000261
C        -2.8757284575   -0.2575740018    6.0951865707
H        -3.3651205986   -0.2319042172    7.0610951909
C        -5.6389449509   -0.0550828737    3.5478057804
H        -6.7168778857    0.0178591996    3.4775467386
C        -5.0527292919   -0.1016849740    4.7912433032
H        -5.6702478701   -0.0661315229    5.6803324347
B         1.2852918240   -0.5441537621   -0.7149231323
C         1.2890471913   -0.5848221933   -2.2426244705
C         2.4895333433   -0.6788016253   -2.9899574587
H         3.4468496131   -0.7299354512   -2.4773562036
C         2.4572909223   -0.7104220734   -4.3616161923
C         1.2043973605   -0.6436721035   -5.0374569142
C         0.0316297784   -0.5518109553   -4.3312258959
H        -0.9186053719   -0.5074262212   -4.8538214317
C         0.0403972414   -0.5182247964   -2.9278442624
C         1.4498513477   -0.6954417584   -6.4712688552
C         0.6586824499   -0.6718056021   -7.5925598678
H        -0.4197226869   -0.5961625418   -7.5276475218
C         2.8450155074   -0.7946500888   -6.6305529869
C         3.4800628201   -0.8742476499   -7.8673252489
C         3.5052038694   -0.8088760187   -5.3850988301
C         4.8728135163   -0.9094770681   -5.3874127410
H         5.4455968101   -0.9297261730   -4.4685889320
C         1.2787702066   -0.7492033257   -8.8602566066
H         0.6533112352   -0.7301593520   -9.7438388558
C         2.6421812266   -0.8482907809   -9.0095520551
H         3.0749949158   -0.9063917689  -10.0008410702
C         5.5483844171   -0.9910349884   -6.6276688550
H         6.6279693752   -1.0705138243   -6.6221261959
C         4.8899222707   -0.9752847118   -7.8350786439
H         5.4510522656   -1.0418547200   -8.7593002459
B        -1.2865775065   -0.4120096739   -2.1585121690
C         2.6553144083   -0.5817667478    0.0353657525
C         3.2847093894   -1.8303644212    0.3546763272
C         4.4609935604   -1.8351328897    1.0440518281
H         4.9559340236   -2.7603432237    1.3122488516
C         5.0686714832   -0.6138135985    1.4342864073
O         6.1958474913   -0.7419311418    2.0935214159
C         4.4779554387    0.6243533116    1.1153191424
H         4.9451722753    1.5551463456    1.4073924998
C         3.2967125750    0.6472441430    0.4215138770
C         6.9093407634    0.4011862353    2.5427493679
H         7.7947422199    0.0227690140    3.0441997037
H         6.3181726975    0.9846539237    3.2503332302
H         7.2125225027    1.0334369791    1.7069372958
C         2.6410165478    1.9324087728    0.0508581417
H         3.2290603925    2.7969436998    0.3546452172
H         2.4768497008    1.9753651488   -1.0276954448
H         1.6517478393    2.0003096378    0.5083093233
C         2.6180067272   -3.0965871006   -0.0702173244
H         3.1747950911   -3.9767332075    0.2474571758
H         2.5076214345   -3.1250799954   -1.1555636500
H         1.6085588208   -3.1521210152    0.3412925292
C        -2.6556853470   -0.3465541480   -2.9442540219
C        -3.3481184850   -1.5146599187   -3.2729507644
C        -4.5419776802   -1.4635135549   -3.9905918339
H        -5.0456766255   -2.3927500347   -4.2255193729
C        -5.0629411867   -0.2417370336   -4.3922726702
O        -6.2118703893   -0.0923709515   -5.0896443343
C        -4.3819867887    0.9289369442   -4.0724564422
H        -4.7948966450    1.8786675779   -4.3915765129
C        -3.1958238320    0.8816039188   -3.3595030073
C        -6.9429846276   -1.2398227418   -5.4236222725
H        -7.8237932337   -0.9017512444   -5.9664046297
H        -7.2729781376   -1.7966796016   -4.5400209361
H        -6.3793975717   -1.9215933730   -6.0696328548
C        -2.4723242798    2.1576689857   -3.0352517685
H        -3.0185502278    3.0336866227   -3.3847801542
H        -1.4826640333    2.1755613543   -3.4965480627
H        -2.3220625866    2.2642520359   -1.9592070965
C        -2.7975372949   -2.8521735089   -2.8623985962
H        -3.4592089879   -3.6695971751   -3.1502909529
H        -1.8243325322   -3.0348507549   -3.3226176746
H        -2.6520550934   -2.9062300800   -1.7819211378
92
 Final energy is   -2123.71685878320     
C         2.4746340416   -1.5672281046    0.3892584526
C         3.4545415744   -1.2470426635   -0.5989745734
B         4.4815393808   -2.3074119085   -0.9862531913
C         4.5204106236   -3.6703106994   -0.2986172976
C         3.5262267259   -3.9843080696    0.6769573624
B         2.4542704700   -2.9516615105    1.0620994848
C         5.4616989383   -4.6598464422   -0.6676265756
C         5.4131276435   -5.9111872753   -0.1112505185
C         4.4025014233   -6.2323658156    0.8427823415
C         3.4934716198   -5.2771191224    1.2311048883
C         1.4600967490   -0.6352793416    0.6716149635
C         1.3990957114    0.5634832635    0.0017946902
C         2.3908358487    0.8959980631   -0.9676409331
C         3.3932485825    0.0041103264   -1.2556834610
C         7.2539381264   -7.4511588115   -1.1730317915
C         7.7185546620   -8.7867420980   -1.1737599356
C         7.1448847796   -9.7700290497   -0.4008372297
C         6.0487245359   -9.4602415224    0.4393919487
C         5.6258421907   -8.1329166834    0.4351171730
C         6.1984501967   -7.1210213728   -0.3603208712
C         5.3123491137  -10.3511800638    1.2583578060
C         4.2402298093   -9.8874507014    1.9853884105
C         3.8291238795   -8.5343817416    1.9591479698
C         4.5302382441   -7.6477550422    1.1788545287
C         1.8264635496    4.1547286434   -2.9090738387
C         2.5375927025    2.9865188115   -2.5479138341
C         2.0237797192    2.1832044309   -1.5614645454
C         0.8109555872    2.5665317554   -0.9534990760
C         0.0753083453    3.6943310255   -1.3067460053
C         0.6325213865    4.5078084852   -2.3226596309
C         0.3926242510    1.6178138164    0.0016227071
C        -0.8096966315    1.8106667299    0.6347740073
C        -1.5723812308    2.9538820880    0.3019674524
C        -1.1586968586    3.8735702385   -0.6342113912
C         7.5674268560   -1.5017992415   -3.1998338245
C         6.7584015897   -1.6328591069   -2.1034544468
C         5.4039023529   -2.0993153854   -2.2407258957
C         4.9060582171   -2.4231636144   -3.5482566928
C         5.7224240263   -2.2835787832   -4.6310257477
C         7.0580289189   -1.8260931654   -4.4750278214
C         7.2534961537   -1.3081638432   -0.7363405290
C         3.5058976623   -2.9207817943   -3.7038163547
O         7.7433353203   -1.7395047248   -5.5837393009
C         9.1017510495   -1.3071346848   -5.5833292770
C         0.4659992040   -3.4516291038    4.3536203901
C         1.4693531663   -3.1093529040    3.4604199749
C         1.3127196232   -3.3354881775    2.0845254978
C         0.1221981596   -3.9166530549    1.6415225917
C        -0.8866668846   -4.2589913144    2.5425159661
C        -0.7180265720   -4.0260795751    3.9004957080
C         2.7425362760   -2.4927840201    3.9676308315
C        -0.0844448052   -4.1871776255    0.1759785257
O        -1.6408005562   -4.3212899477    4.8453385896
C        -2.8665019852   -4.8676318106    4.4332326412
H         6.2184632270   -4.4419291006   -1.4164425644
H         2.7193939022   -5.5204075173    1.9518715193
H         0.6969489713   -0.8948382464    1.3982944834
H         4.1272019908    0.2494865037   -2.0186790897
H         7.7287728431   -6.7220134750   -1.8179465261
H         8.5505754164   -9.0448629385   -1.8167378788
H         7.5246706797  -10.7837815508   -0.4445597035
H         5.5850298392  -11.3986929042    1.3032462276
H         3.6819582119  -10.5838673906    2.5983319735
H         2.9688061902   -8.2269349936    2.5405792664
H         2.2328809848    4.7854376420   -3.6895977099
H         3.4586134076    2.7417877268   -3.0627170559
H         0.1145766356    5.4023161877   -2.6467843689
H        -1.1898567769    1.1058437369    1.3639998023
H        -2.5230608518    3.1024151822    0.7983387368
H        -1.7830542193    4.7281056696   -0.8651641086
H         8.5844040972   -1.1534391178   -3.0805411281
H         5.3792554954   -2.5232389823   -5.6301190618
H         8.2711412689   -0.9223799252   -0.7488625622
H         7.2228129771   -2.1963070495   -0.1013562280
H         6.6026137546   -0.5726347266   -0.2596577163
H         3.2764513092   -3.1477807263   -4.7437241763
H         2.7883918165   -2.1825244825   -3.3437225641
H         3.3494748096   -3.8226805442   -3.1098879196
H         9.4225748495   -1.3386167712   -6.6195460856
H         9.7254950155   -1.9767873169   -4.9906949170
H         9.1884105663   -0.2869327544   -5.2084890146
H         0.5905403539   -3.2720973714    5.4153625310
H        -1.7960195960   -4.7050936241    2.1590671458
H         2.9296487964   -1.5274902135    3.4930256252
H         3.6030791163   -3.1263508026    3.7423370765
H         2.7166969333   -2.3361521719    5.0459192152
H         0.6539198640   -4.8964861583   -0.2040394155
H         0.0194853391   -3.2758496473   -0.4161715706
H        -1.0732485545   -4.6008179966   -0.0243416967
H        -3.4624018811   -5.0114937724    5.3324239294
H        -3.4127429727   -4.2012813747    3.7576944068
H        -2.7457382740   -5.8371287624    3.9390298097
92
 Final energy is   -2123.72054851121     
C         2.4748264236   -1.5748713503    0.3841377914
C         3.4533230851   -1.2583697994   -0.6072557470
B         4.4780630281   -2.3212096986   -0.9942692770
C         4.5143589604   -3.6829349600   -0.3043172914
C         3.5223534474   -3.9934048282    0.6744525578
B         2.4540245934   -2.9574872402    1.0606560179
C         5.4537359901   -4.6736794953   -0.6734393372
C         5.4035969491   -5.9248917131   -0.1162016628
C         4.3937833260   -6.2435473986    0.8396954696
C         3.4876780782   -5.2863006412    1.2293440692
C         1.4623973785   -0.6402960055    0.6665149481
C         1.4025247139    0.5575290144   -0.0051099334
C         2.3929562596    0.8862493745   -0.9774449045
C         3.3928008480   -0.0084277515   -1.2663120123
C         7.2391995673   -7.4690039967   -1.1809949893
C         7.7009229777   -8.8057234833   -1.1822350303
C         7.1265373031   -9.7877652767   -0.4080617196
C         6.0324270733   -9.4754083135    0.4341298574
C         5.6123143410   -8.1470885604    0.4303742658
C         6.1857295742   -7.1365161151   -0.3663998389
C         5.2955885192  -10.3648029672    1.2545150954
C         4.2256290134   -9.8986581553    1.9833113145
C         3.8172700709   -8.5445522338    1.9575136969
C         4.5189891770   -7.6595316336    1.1759154228
C         1.8313458313    4.1426190444   -2.9237414892
C         2.5406977704    2.9733453750   -2.5622096624
C         2.0272552404    2.1729906180   -1.5729321787
C         0.8166710483    2.5602187406   -0.9627426723
C         0.0827789728    3.6892000265   -1.3163410140
C         0.6395098969    4.4996631010   -2.3351030204
C         0.3983346080    1.6141416822   -0.0048959678
C        -0.8021731773    1.8109546862    0.6307875166
C        -1.5629917115    2.9554151502    0.2976231279
C        -1.1493336764    3.8725733615   -0.6412696134
C         7.5608802622   -1.4577665948   -3.1900518153
C         6.7493284978   -1.6066727770   -2.0982760441
C         5.4081698035   -2.1074965922   -2.2429669349
C         4.9276282207   -2.4524134783   -3.5513255582
C         5.7456990710   -2.2948999038   -4.6301315687
C         7.0677155529   -1.7999585474   -4.4676500608
C         7.2282055748   -1.2651027669   -0.7292984639
C         3.5420954096   -2.9880626207   -3.7110683661
O         7.7564275333   -1.6982765539   -5.5715494357
C         9.1039459684   -1.2298110106   -5.5665650897
C         0.4761289889   -3.4431364901    4.3611515586
C         1.4774832151   -3.1068426520    3.4631569631
C         1.3150118806   -3.3359268877    2.0884124240
C         0.1207058358   -3.9142946788    1.6515745433
C        -0.8861814604   -4.2506491728    2.5572228277
C        -0.7118004955   -4.0144717145    3.9140269998
C         2.7545084689   -2.4932502117    3.9644182373
C        -0.0925599440   -4.1882257873    0.1875686795
O        -1.6322893876   -4.3033432374    4.8630034561
C        -2.8621093510   -4.8466943756    4.4568129370
H         6.2094538165   -4.4568495461   -1.4235886823
H         2.7145961505   -5.5279935646    1.9517514641
H         0.7000977425   -0.8964833142    1.3952998064
H         4.1246941381    0.2338792599   -2.0321987912
H         7.7144948206   -6.7410254511   -1.8268885411
H         8.5312271084   -9.0656727688   -1.8267072180
H         7.5040200811  -10.8023712696   -0.4522774743
H         5.5661675821  -11.4128958450    1.2989700933
H         3.6668575516  -10.5937680005    2.5973098982
H         2.9585371921   -8.2353115184    2.5403901405
H         2.2373793903    4.7708963620   -3.7064357853
H         3.4598280217    2.7254295624   -3.0788785186
H         0.1228451583    5.3947832139   -2.6596118586
H        -1.1823673411    1.1084180613    1.3622360264
H        -2.5121974423    3.1070015871    0.7959208316
H        -1.7722476857    4.7281248578   -0.8724249513
H         8.5677243182   -1.0825186497   -3.0665684436
H         5.4148168644   -2.5469586153   -5.6303554989
H         8.2410786556   -0.8669669138   -0.7365194156
H         7.2028307709   -2.1484269542   -0.0876065942
H         6.5649205222   -0.5330736213   -0.2645073498
H         3.3228963880   -3.2245437914   -4.7510224580
H         2.8037691540   -2.2677703141   -3.3565092823
H         3.4073382252   -3.8917241393   -3.1145595593
H         9.4299572638   -1.2573922193   -6.6011840320
H         9.7414181797   -1.8805349134   -4.9677489283
H         9.1606701123   -0.2062363060   -5.1956698740
H         0.6056677694   -3.2609269913    5.4219131190
H        -1.7985992282   -4.6945177158    2.1784403346
H         2.9429882798   -1.5295826511    3.4870413093
H         3.6122377962   -3.1299585647    3.7372435850
H         2.7331564847   -2.3342988540    5.0424712921
H         0.6420547880   -4.9009345675   -0.1933733262
H         0.0122699401   -3.2790076119   -0.4076541683
H        -1.0834994537   -4.5991017857   -0.0077599663
H        -3.4549380925   -4.9861551035    5.3586682731
H        -3.4082258852   -4.1799418237    3.7817545770
H        -2.7462792843   -5.8176840227    3.9646198885
92
 Final energy is   -2123.73429948345     
C         0.0031423826   -0.4098537038    0.0732337344
C        -0.0028424002   -0.3983420757    1.4896315704
H         0.9350921885   -0.4513408159    2.0358466167
C        -1.1859919559   -0.3256944828    2.1845876025
C        -2.4192966609   -0.2513573155    1.4711865249
C        -2.4347355235   -0.2621259326    0.0978369145
H        -3.3787737346   -0.2091030108   -0.4354034737
C        -1.2380930163   -0.3453254310   -0.6349069303
C        -3.5068002235   -0.1827407974    2.4364057832
C        -4.8747012675   -0.0978690398    2.3498300121
H        -5.3853699467   -0.0615732740    1.3951610691
C        -2.9082256362   -0.2242040460    3.7108119364
C        -3.6236495224   -0.1893333719    4.9044392703
C        -1.5033364200   -0.3110737831    3.6155187618
C        -0.7824121546   -0.3666608339    4.7813349413
H         0.2983254140   -0.4369784725    4.7824811672
C        -1.4804360379   -0.3331560842    6.0123280226
H        -0.9073581381   -0.3784999673    6.9296165337
C        -2.8523343602   -0.2472280299    6.0897302442
H        -3.3398863985   -0.2253589415    7.0567662333
C        -5.6246235242   -0.0583281726    3.5475402165
H        -6.7032788710    0.0081872965    3.4800358218
C        -5.0342399238   -0.1027801494    4.7905314032
H        -5.6492614755   -0.0716928239    5.6816921958
B         1.3021380041   -0.4936218914   -0.7273391775
C         1.2992430992   -0.5281473283   -2.2547529681
C         2.5000922881   -0.6189192791   -3.0008304995
H         3.4558320636   -0.6677293153   -2.4861268257
C         2.4703208480   -0.6502094282   -4.3737880170
C         1.2167961745   -0.5865336574   -5.0523498511
C         0.0422128854   -0.4997789001   -4.3481400039
H        -0.9046335509   -0.4569607745   -4.8771365929
C         0.0479728766   -0.4688132494   -2.9431687082
C         1.4646146383   -0.6375024281   -6.4865601650
C         0.6742296723   -0.6158582901   -7.6099439337
H        -0.4047292455   -0.5426127503   -7.5476136177
C         2.8609536426   -0.7342712740   -6.6427459562
C         3.4985557851   -0.8137284370   -7.8792555164
C         3.5198034627   -0.7468834308   -5.3955223781
C         4.8888726284   -0.8455076901   -5.3952401172
H         5.4605442387   -0.8645838644   -4.4756419913
C         1.2973351138   -0.6931337719   -8.8770791806
H         0.6732728416   -0.6760058129   -9.7618569688
C         2.6624786872   -0.7898949015   -9.0238406983
H         3.0978070320   -0.8479941281  -10.0141802170
C         5.5661524995   -0.9268698855   -6.6357171468
H         6.6459253692   -1.0046768553   -6.6278442988
C         4.9096419145   -0.9126921999   -7.8455347685
H         5.4719660807   -0.9789220392   -8.7691705887
B        -1.2781258222   -0.3737542462   -2.1720721452
C         2.6783153911   -0.5299551873    0.0301820990
C         3.2704792710   -1.7787581053    0.4060578210
C         4.4473986042   -1.7855835220    1.0926685760
H         4.9179908112   -2.7115701025    1.3998948065
C         5.0907245535   -0.5607771277    1.4264968877
O         6.2073798573   -0.6871227272    2.0841895143
C         4.5294970678    0.6802184325    1.0499192861
H         5.0221370913    1.6099399565    1.3005461094
C         3.3495358220    0.6992383184    0.3595915548
C         6.9677665243    0.4557621618    2.4844859516
H         7.8416172622    0.0640625505    2.9942298306
H         6.3951365801    1.0810475383    3.1691948673
H         7.2797790946    1.0371871783    1.6172920546
C         2.7271505237    1.9859787157   -0.0645275687
H         3.3246689745    2.8453809953    0.2335311080
H         2.5984333744    2.0076059972   -1.1483896015
H         1.7286762491    2.0879193309    0.3650756443
C         2.5741588822   -3.0487119545    0.0395377177
H         3.1262553029   -3.9240722951    0.3769963546
H         2.4426782464   -3.1169082183   -1.0416365140
H         1.5745984967   -3.0794921295    0.4767356827
C        -2.6517938740   -0.3187076366   -2.9577415557
C        -3.3287175600   -1.4920500121   -3.3011565060
C        -4.5250088833   -1.4509214291   -4.0186581368
H        -5.0153446806   -2.3846116340   -4.2645754313
C        -5.0650763576   -0.2322555033   -4.4058235497
O        -6.2168603334   -0.0924619282   -5.1017049516
C        -4.4005974623    0.9443361754   -4.0707543449
H        -4.8245317582    1.8943418823   -4.3765770964
C        -3.2116482662    0.9054835639   -3.3577813918
C        -6.9311666396   -1.2527899081   -5.4532599598
H        -7.8167393278   -0.9223615804   -5.9923054713
H        -7.2504670239   -1.8245015028   -4.5764020496
H        -6.3532706034   -1.9137947589   -6.1065824602
C        -2.5107540223    2.1910684608   -3.0195433580
H        -3.0696673820    3.0608643838   -3.3648236448
H        -1.5188666426    2.2298237542   -3.4749734377
H        -2.3666299706    2.2919097802   -1.9420381783
C        -2.7629862465   -2.8288715400   -2.9071460476
H        -3.4159175768   -3.6495739957   -3.2053302325
H        -1.7875782973   -2.9959699653   -3.3688033292
H        -2.6160989644   -2.8951355550   -1.8274355656
92
 Final energy is   -2123.74126874816     
C         2.4679869822   -1.5892858801    0.3736278611
C         3.4457272489   -1.2774179956   -0.6224629429
B         4.4691992504   -2.3420155921   -1.0140252409
C         4.5007644311   -3.7013287635   -0.3166716815
C         3.5108443954   -4.0084271913    0.6671485052
B         2.4462892889   -2.9694876809    1.0545619009
C         5.4407606294   -4.6915974917   -0.6834739482
C         5.3918611281   -5.9421810748   -0.1221816780
C         4.3821980089   -6.2595841379    0.8358435048
C         3.4764575305   -5.3017656403    1.2246642091
C         1.4593106337   -0.6491230605    0.6574464681
C         1.4040056715    0.5492238001   -0.0137902767
C         2.3945981983    0.8730424173   -0.9892459307
C         3.3893026387   -0.0275516063   -1.2817195579
C         7.2282900553   -7.4862478398   -1.1857207455
C         7.6911372253   -8.8233022769   -1.1838966416
C         7.1184087158   -9.8050656478   -0.4068326497
C         6.0240782778   -9.4915907116    0.4358775532
C         5.6024056923   -8.1630989145    0.4297281471
C         6.1745972384   -7.1535682409   -0.3702342864
C         5.2885380849  -10.3807136545    1.2585640943
C         4.2177768714   -9.9142988761    1.9874687689
C         3.8076069948   -8.5601254878    1.9593126559
C         4.5086020751   -7.6756302763    1.1752973115
C         1.8476176887    4.1339830192   -2.9325109556
C         2.5511681351    2.9594323597   -2.5743117547
C         2.0348636627    2.1619147209   -1.5831199701
C         0.8281956493    2.5564186300   -0.9685891342
C         0.1003205381    3.6909558646   -1.3194348605
C         0.6593180983    4.4990550691   -2.3398278611
C         0.4058761151    1.6124143716   -0.0098582045
C        -0.7921142307    1.8165520439    0.6299046313
C        -1.5465050214    2.9667050139    0.2994384810
C        -1.1291058172    3.8821965920   -0.6406510321
C         7.5519440270   -1.4097628223   -3.1834198064
C         6.7353943477   -1.5787873296   -2.0998273310
C         5.4122249601   -2.1185397397   -2.2558695839
C         4.9533068668   -2.4850545969   -3.5640538678
C         5.7742695808   -2.3102338163   -4.6376961987
C         7.0806182791   -1.7726326294   -4.4658925756
C         7.1960730906   -1.2160872253   -0.7287754554
C         3.5832405123   -3.0585178311   -3.7349839577
O         7.7726340846   -1.6530310649   -5.5602215069
C         9.1071095748   -1.1357243825   -5.5518727589
C         0.4831745506   -3.4357458608    4.3702352472
C         1.4814821604   -3.1070505375    3.4644736358
C         1.3110806508   -3.3409276262    2.0912124716
C         0.1110475054   -3.9169152960    1.6643793882
C        -0.8930737508   -4.2456185060    2.5768669140
C        -0.7104511944   -4.0041904589    3.9323289729
C         2.7625072319   -2.4961677426    3.9597612780
C        -0.1136606771   -4.1973064467    0.2031034290
O        -1.6267705355   -4.2847780117    4.8869345436
C        -2.8653840316   -4.8247842005    4.4891862645
H         6.1949776448   -4.4756817899   -1.4347912379
H         2.7049849940   -5.5447639843    1.9485247826
H         0.6961379927   -0.8990526783    1.3876618898
H         4.1191668244    0.2106256207   -2.0502678546
H         7.7020777308   -6.7591934125   -1.8337093402
H         8.5210492277   -9.0833360680   -1.8287928943
H         7.4965770590  -10.8195201533   -0.4490648021
H         5.5605184503  -11.4284284660    1.3043355338
H         3.6599006890  -10.6089391463    2.6028636510
H         2.9484650446   -8.2514307289    2.5421604365
H         2.2555311198    4.7596070661   -3.7163170644
H         3.4667434514    2.7054131845   -3.0942890936
H         0.1471704833    5.3975947439   -2.6620854360
H        -1.1755293382    1.1163663351    1.3621492133
H        -2.4934326970    3.1240861038    0.8003305147
H        -1.7468147164    4.7420357117   -0.8700615892
H         8.5459527010   -1.0035341805   -3.0541845220
H         5.4581052013   -2.5763650040   -5.6391232421
H         8.2015645020   -0.8002640594   -0.7341989468
H         7.1851092949   -2.0942167642   -0.0799088796
H         6.5190788118   -0.4885510661   -0.2771169233
H         3.3812586392   -3.3029512898   -4.7764148432
H         2.8220514631   -2.3560219524   -3.3927761260
H         3.4656279256   -3.9651532923   -3.1394012597
H         9.4363423699   -1.1575165289   -6.5852327208
H         9.7601606279   -1.7622374101   -4.9452173743
H         9.1207931254   -0.1102811796   -5.1839694287
H         0.6217197784   -3.2485728740    5.4293686206
H        -1.8096170628   -4.6871775105    2.2052903956
H         2.9543953115   -1.5355575178    3.4775107942
H         3.6176281889   -3.1370543332    3.7341692692
H         2.7443770277   -2.3320679925    5.0370841969
H         0.6147559844   -4.9155414401   -0.1795886119
H        -0.0077804146   -3.2921012921   -0.3980845398
H        -1.1078586432   -4.6040883359    0.0168390785
H        -3.4530772890   -4.9570927723    5.3951478717
H        -3.4098805682   -4.1571511379    3.8147091769
H        -2.7556212541   -5.7974761405    4.0003964633
