92
 Final energy is   -2123.71685878320     
C         2.4746340416   -1.5672281046    0.3892584526
C         3.4545415744   -1.2470426635   -0.5989745734
B         4.4815393808   -2.3074119085   -0.9862531913
C         4.5204106236   -3.6703106994   -0.2986172976
C         3.5262267259   -3.9843080696    0.6769573624
B         2.4542704700   -2.9516615105    1.0620994848
C         5.4616989383   -4.6598464422   -0.6676265756
C         5.4131276435   -5.9111872753   -0.1112505185
C         4.4025014233   -6.2323658156    0.8427823415
C         3.4934716198   -5.2771191224    1.2311048883
C         1.4600967490   -0.6352793416    0.6716149635
C         1.3990957114    0.5634832635    0.0017946902
C         2.3908358487    0.8959980631   -0.9676409331
C         3.3932485825    0.0041103264   -1.2556834610
C         7.2539381264   -7.4511588115   -1.1730317915
C         7.7185546620   -8.7867420980   -1.1737599356
C         7.1448847796   -9.7700290497   -0.4008372297
C         6.0487245359   -9.4602415224    0.4393919487
C         5.6258421907   -8.1329166834    0.4351171730
C         6.1984501967   -7.1210213728   -0.3603208712
C         5.3123491137  -10.3511800638    1.2583578060
C         4.2402298093   -9.8874507014    1.9853884105
C         3.8291238795   -8.5343817416    1.9591479698
C         4.5302382441   -7.6477550422    1.1788545287
C         1.8264635496    4.1547286434   -2.9090738387
C         2.5375927025    2.9865188115   -2.5479138341
C         2.0237797192    2.1832044309   -1.5614645454
C         0.8109555872    2.5665317554   -0.9534990760
C         0.0753083453    3.6943310255   -1.3067460053
C         0.6325213865    4.5078084852   -2.3226596309
C         0.3926242510    1.6178138164    0.0016227071
C        -0.8096966315    1.8106667299    0.6347740073
C        -1.5723812308    2.9538820880    0.3019674524
C        -1.1586968586    3.8735702385   -0.6342113912
C         7.5674268560   -1.5017992415   -3.1998338245
C         6.7584015897   -1.6328591069   -2.1034544468
C         5.4039023529   -2.0993153854   -2.2407258957
C         4.9060582171   -2.4231636144   -3.5482566928
C         5.7224240263   -2.2835787832   -4.6310257477
C         7.0580289189   -1.8260931654   -4.4750278214
C         7.2534961537   -1.3081638432   -0.7363405290
C         3.5058976623   -2.9207817943   -3.7038163547
O         7.7433353203   -1.7395047248   -5.5837393009
C         9.1017510495   -1.3071346848   -5.5833292770
C         0.4659992040   -3.4516291038    4.3536203901
C         1.4693531663   -3.1093529040    3.4604199749
C         1.3127196232   -3.3354881775    2.0845254978
C         0.1221981596   -3.9166530549    1.6415225917
C        -0.8866668846   -4.2589913144    2.5425159661
C        -0.7180265720   -4.0260795751    3.9004957080
C         2.7425362760   -2.4927840201    3.9676308315
C        -0.0844448052   -4.1871776255    0.1759785257
O        -1.6408005562   -4.3212899477    4.8453385896
C        -2.8665019852   -4.8676318106    4.4332326412
H         6.2184632270   -4.4419291006   -1.4164425644
H         2.7193939022   -5.5204075173    1.9518715193
H         0.6969489713   -0.8948382464    1.3982944834
H         4.1272019908    0.2494865037   -2.0186790897
H         7.7287728431   -6.7220134750   -1.8179465261
H         8.5505754164   -9.0448629385   -1.8167378788
H         7.5246706797  -10.7837815508   -0.4445597035
H         5.5850298392  -11.3986929042    1.3032462276
H         3.6819582119  -10.5838673906    2.5983319735
H         2.9688061902   -8.2269349936    2.5405792664
H         2.2328809848    4.7854376420   -3.6895977099
H         3.4586134076    2.7417877268   -3.0627170559
H         0.1145766356    5.4023161877   -2.6467843689
H        -1.1898567769    1.1058437369    1.3639998023
H        -2.5230608518    3.1024151822    0.7983387368
H        -1.7830542193    4.7281056696   -0.8651641086
H         8.5844040972   -1.1534391178   -3.0805411281
H         5.3792554954   -2.5232389823   -5.6301190618
H         8.2711412689   -0.9223799252   -0.7488625622
H         7.2228129771   -2.1963070495   -0.1013562280
H         6.6026137546   -0.5726347266   -0.2596577163
H         3.2764513092   -3.1477807263   -4.7437241763
H         2.7883918165   -2.1825244825   -3.3437225641
H         3.3494748096   -3.8226805442   -3.1098879196
H         9.4225748495   -1.3386167712   -6.6195460856
H         9.7254950155   -1.9767873169   -4.9906949170
H         9.1884105663   -0.2869327544   -5.2084890146
H         0.5905403539   -3.2720973714    5.4153625310
H        -1.7960195960   -4.7050936241    2.1590671458
H         2.9296487964   -1.5274902135    3.4930256252
H         3.6030791163   -3.1263508026    3.7423370765
H         2.7166969333   -2.3361521719    5.0459192152
H         0.6539198640   -4.8964861583   -0.2040394155
H         0.0194853391   -3.2758496473   -0.4161715706
H        -1.0732485545   -4.6008179966   -0.0243416967
H        -3.4624018811   -5.0114937724    5.3324239294
H        -3.4127429727   -4.2012813747    3.7576944068
H        -2.7457382740   -5.8371287624    3.9390298097
