92
 Final energy is   -2123.73064069604     
C        -0.0172046115   -0.3444784937    0.0481601849
C        -0.0160013240   -0.3004139313    1.4567822353
H         0.9309916559   -0.3225359189    1.9845219631
C        -1.1963268284   -0.2325485209    2.1489738011
C        -1.5016002910   -0.1807064766    3.5661685669
C        -0.7625717300   -0.1791619608    4.7258548844
H         0.3189258420   -0.2227757124    4.7131083864
C        -1.4489101463   -0.1199894158    5.9577000301
H        -0.8686822097   -0.1193720676    6.8711313460
C        -2.8238961777   -0.0638191239    6.0433416004
H        -3.3012636798   -0.0200032531    7.0144394599
C        -2.9093397494   -0.1231050416    3.6660807811
C        -3.6110825967   -0.0642789616    4.8667007802
C        -3.5270850660   -0.1346292788    2.3955602854
C        -4.9006446265   -0.0833955519    2.3218294063
H        -5.4216968163   -0.0887350025    1.3726479467
C        -5.6321573650   -0.0230378970    3.5251222751
H        -6.7124764465    0.0170145811    3.4729696089
C        -5.0229220807   -0.0132722604    4.7625523439
H        -5.6297011767    0.0337068941    5.6583817484
C        -2.4609683251   -0.2054595036    1.4232198839
C        -2.4832943708   -0.2507553698    0.0520505471
H        -3.4274306073   -0.2341765597   -0.4817205990
C        -1.2834255011   -0.3202433972   -0.6755832834
B        -1.3206529242   -0.3756791586   -2.2081409322
B         1.3089762526   -0.4251954469   -0.7095088766
C         1.2778814578   -0.4416905662   -2.2385575179
C         2.4898115995   -0.4821225682   -2.9549109927
H         3.4266036125   -0.5014398953   -2.4097415748
C         2.4839448297   -0.4973575767   -4.3237429233
C         3.5512561732   -0.5350918047   -5.3048240186
C         4.9253808281   -0.5691974527   -5.2550869355
H         5.4621978380   -0.5730794340   -4.3151860197
C         5.6402471743   -0.6004663660   -6.4713626513
H         6.7213926604   -0.6272401540   -6.4334199525
C         5.0179078997   -0.5987900171   -7.7017098960
H         5.6130744777   -0.6238690668   -8.6062232560
C         2.9241644142   -0.5345032031   -6.5703178469
C         3.6054453262   -0.5651422344   -7.7849323829
C         1.5161916970   -0.4998696864   -6.4614263977
C         0.7604943049   -0.4950019604   -7.6124939593
H        -0.3215839547   -0.4684254741   -7.5845218458
C         1.4291085154   -0.5252233685   -8.8534590349
H         0.8380348545   -0.5211471733   -9.7601715890
C         2.8040516535   -0.5595107918   -8.9529826435
H         3.2713910781   -0.5820078315   -9.9298212968
C         1.2179935833   -0.4766304673   -5.0472228433
C         0.0269466071   -0.4428763272   -4.3681705305
H        -0.9118102153   -0.4325072684   -4.9114930144
C         0.0128773354   -0.4208117878   -2.9627392145
C         2.6812446505   -0.5070930154    0.0572134281
C         3.3853277405    0.6472200412    0.4023208471
C         4.6050619649    0.5654179995    1.0739943462
H         5.1220800936    1.4824633669    1.3267728691
C         5.1346125853   -0.6750453797    1.4064354191
O         6.3061765534   -0.8560896261    2.0543510954
C         4.4391540988   -1.8321599874    1.0635220071
H         4.8600429817   -2.7961536816    1.3255573769
C         3.2276328683   -1.7545816145    0.3959507384
C         7.0540903068    0.2784046238    2.4128887972
H         7.9534205094   -0.0844547065    2.9061315931
H         7.3498975387    0.8719435344    1.5421996492
H         6.5140737692    0.9278227746    3.1089880532
C         2.8250623961    1.9957076251    0.0422876417
H         3.4738802713    2.8075925333    0.3705470370
H         2.6916187238    2.0938442812   -1.0373735485
H         1.8433124836    2.1524151324    0.4943259167
C         2.4948229718   -3.0149805453    0.0268298482
H         3.0267990285   -3.9059619647    0.3595875423
H         2.3604065364   -3.0940429482   -1.0543122361
H         1.4966163853   -3.0400013358    0.4693734788
C        -2.6894583958   -0.3963186256   -2.9959462580
C        -3.3104455353   -1.6075137773   -3.3112691002
C        -4.5079066649   -1.6358552769   -4.0258924470
H        -4.9567670595   -2.5955736145   -4.2490050593
C        -5.1028602526   -0.4512323126   -4.4379923206
O        -6.2595695857   -0.3782818364   -5.1321256691
C        -4.4919245136    0.7616192831   -4.1312379120
H        -4.9604099858    1.6830691855   -4.4576618269
C        -3.3024703560    0.7936303575   -3.4207760860
C        -6.9230608627   -1.5742837813   -5.4578872936
H        -7.8208980775   -1.2934592681   -6.0045059070
H        -6.3168973028   -2.2248700905   -6.0961738174
H        -7.2197688774   -2.1393886836   -4.5686351534
C        -2.6601191263    2.1161231122   -3.1106462001
H        -3.2569320351    2.9518656350   -3.4752417172
H        -1.6704036008    2.1917031388   -3.5663954472
H        -2.5225172329    2.2493590721   -2.0357233326
C        -2.6842158064   -2.9070778347   -2.8860000659
H        -3.2903234496   -3.7646150108   -3.1783889350
H        -1.6951982172   -3.0354559232   -3.3310768289
H        -2.5511237719   -2.9499860672   -1.8032084058
