92
 Final energy is   -2123.72849195252     
C        -0.0171734877   -0.3449620965    0.0482303513
C        -0.0159742986   -0.3016484748    1.4568158097
H         0.9312889433   -0.3238334366    1.9840942045
C        -1.1963223843   -0.2346270490    2.1489587876
C        -1.5017357780   -0.1840097484    3.5661376702
C        -0.7628793726   -0.1833487058    4.7258542397
H         0.3186084009   -0.2267869825    4.7130927590
C        -1.4492005427   -0.1254253728    5.9576411710
H        -0.8690400907   -0.1255270781    6.8711060813
C        -2.8241022139   -0.0696067630    6.0432737599
H        -3.3014287462   -0.0267659902    7.0144272684
C        -2.9094417327   -0.1268107361    3.6661121865
C        -3.6112434164   -0.0692003305    4.8667223355
C        -3.5270276352   -0.1374311508    2.3955751122
C        -4.9005219155   -0.0864198509    2.3219023048
H        -5.4214891278   -0.0910471019    1.3726896903
C        -5.6320950358   -0.0272548525    3.5250988472
H        -6.7124142949    0.0126214582    3.4729434709
C        -5.0229848713   -0.0184334805    4.7624784255
H        -5.6299008112    0.0276229245    5.6582531492
C        -2.4609004035   -0.2072938778    1.4231908652
C        -2.4831829377   -0.2516718949    0.0520627308
H        -3.4270169308   -0.2349248202   -0.4822644833
C        -1.2832797804   -0.3206371395   -0.6754879040
B        -1.3205029280   -0.3755555008   -2.2080320110
B         1.3090300885   -0.4251682929   -0.7094013986
C         1.2779002251   -0.4426171444   -2.2384179267
C         2.4897887150   -0.4840010998   -2.9546711453
H         3.4263029529   -0.5035387130   -2.4090055657
C         2.4838845353   -0.4998437376   -4.3234477586
C         3.5511184365   -0.5384543769   -5.3045349695
C         4.9251565497   -0.5733191293   -5.2548480300
H         5.4619156459   -0.5773290511   -4.3149342692
C         5.6400051882   -0.6052305696   -6.4709883840
H         6.7211286556   -0.6326044924   -6.4330467834
C         5.0177468261   -0.6034650323   -7.7012633022
H         5.6130050790   -0.6290434354   -8.6056913109
C         2.9241428586   -0.5378381106   -6.5700339409
C         3.6054089514   -0.5690835675   -7.7846047053
C         1.5162551662   -0.5024341363   -6.4610958034
C         0.7606902152   -0.4973536998   -7.6121558345
H        -0.3213545972   -0.4701321318   -7.5841667593
C         1.4292159193   -0.5281624242   -8.8530393978
H         0.8381709443   -0.5238979493   -9.7597611229
C         2.8040344965   -0.5632431394   -8.9525486653
H         3.2712838352   -0.5861669113   -9.9294134375
C         1.2179913385   -0.4786985435   -5.0469201846
C         0.0270055971   -0.4441751680   -4.3679437206
H        -0.9120517560   -0.4335960808   -4.9107698967
C         0.0130058805   -0.4215615165   -2.9625584590
C         2.6813286024   -0.5053555743    0.0572590251
C         3.3844351378    0.6498698418    0.4009166489
C         4.6042207056    0.5697278324    1.0724954396
H         5.1205037100    1.4874907143    1.3241045461
C         5.1347259454   -0.6698511718    1.4063055754
O         6.3065209261   -0.8493796967    2.0542677113
C         4.4401941648   -1.8278210088    1.0648893219
H         4.8621654443   -2.7909228670    1.3282054377
C         3.2286817418   -1.7520075482    0.3974335156
C         7.0533214970    0.2854809906    2.4113095360
H         7.9530173536   -0.0761586279    2.9048597204
H         7.3488561140    0.8785586438    1.5400742768
H         6.5131960425    0.9355464866    3.1068950329
C         2.8228450420    1.9973599757    0.0392880644
H         3.4707762208    2.8103623593    0.3665644217
H         2.6893357968    2.0941543188   -1.0404715185
H         1.8409574733    2.1536663642    0.4911331273
C         2.4965811030   -3.0132149123    0.0297918105
H         3.0291928133   -3.9035509431    0.3632414185
H         2.3618684650   -3.0934700802   -1.0512133258
H         1.4985551679   -3.0384605761    0.4727001007
C        -2.6891797911   -0.3947865853   -2.9958873561
C        -3.3113488765   -1.6051997181   -3.3114313529
C        -4.5086403967   -1.6320132294   -4.0262111886
H        -4.9584647757   -2.5912221542   -4.2495318663
C        -5.1021886222   -0.4467558445   -4.4381739930
O        -6.2587589207   -0.3722898355   -5.1324345363
C        -4.4900324666    0.7652879903   -4.1312194940
H        -4.9577594490    1.6870273632   -4.4577097356
C        -3.3008008132    0.7958892564   -3.4206339642
C        -6.9234836016   -1.5668673361   -5.4579663985
H        -7.8211538474   -1.2849520445   -6.0043699962
H        -6.3185274775   -2.2184382693   -6.0965782097
H        -7.2208957126   -2.1319642304   -4.5688126630
C        -2.6568504214    2.1174816995   -3.1100892152
H        -3.2526656987    2.9540857591   -3.4743226217
H        -1.6670998552    2.1920928220   -3.5658940545
H        -2.5190234395    2.2502209413   -2.0351457040
C        -2.6863976965   -2.9053778672   -2.8862309315
H        -3.2933662078   -3.7623642829   -3.1784865341
H        -1.6975923104   -3.0348068058   -3.3314353896
H        -2.5532428445   -2.9484601614   -1.8034705786
