92
 Final energy is   -2123.73736450460     
C        -0.0174320569   -0.3427375889    0.0480025542
C        -0.0163031529   -0.2957459156    1.4567176728
H         0.9298106788   -0.3170368759    1.9859910105
C        -1.1966398915   -0.2255335812    2.1489694912
C        -1.5015600171   -0.1696744346    3.5661655721
C        -0.7620655305   -0.1646652194    4.7258179709
H         0.3194850844   -0.2081204867    4.7131573903
C        -1.4485525792   -0.1017375237    5.9577900730
H        -0.8681691159   -0.0982843441    6.8711355799
C        -2.8238507994   -0.0452838765    6.0433796923
H        -3.3014825567    0.0015135890    7.0142236020
C        -2.9094540422   -0.1116131078    3.6657994900
C        -3.6111009665   -0.0491794814    4.8664114142
C        -3.5276461270   -0.1265581941    2.3952984504
C        -4.9014600263   -0.0754917267    2.3213586780
H        -5.4227262410   -0.0835843525    1.3722616209
C        -5.6328597238   -0.0116688541    3.5249116702
H        -6.7131960101    0.0282122704    3.4727435489
C        -5.0232796299    0.0016644342    4.7625229657
H        -5.6296337539    0.0512773391    5.6585165669
C        -2.4614855625   -0.2000157631    1.4231732862
C        -2.4838357954   -0.2484140893    0.0518661954
H        -3.4288839526   -0.2327376158   -0.4802391959
C        -1.2839905140   -0.3192604171   -0.6759194707
B        -1.3211638124   -0.3765363811   -2.2085379585
B         1.3087812035   -0.4252526781   -0.7096200240
C         1.2778502716   -0.4388813734   -2.2388033118
C         2.4899813958   -0.4758728624   -2.9553750141
H         3.4276280804   -0.4939684916   -2.4117145963
C         2.4843256921   -0.4893001816   -4.3243890145
C         3.5519716226   -0.5237006240   -5.3053540589
C         4.9263986230   -0.5544699415   -5.2553811428
H         5.4633303472   -0.5574572309   -4.3154885787
C         5.6414205244   -0.5832625499   -6.4720314111
H         6.7226407659   -0.6073666155   -6.4340241563
C         5.0189111045   -0.5823397161   -7.7026557849
H         5.6138151473   -0.6054319587   -8.6074160441
C         2.9246036040   -0.5236483090   -6.5708874444
C         3.6060429391   -0.5519528057   -7.7855942358
C         1.5163259836   -0.4922522985   -6.4622544437
C         0.7603319353   -0.4885119050   -7.6134431981
H        -0.3218574392   -0.4645958008   -7.5855842494
C         1.4293404611   -0.5165153781   -8.8546062774
H         0.8382659324   -0.5134165241   -9.7613388014
C         2.8047077602   -0.5474891670   -8.9540644690
H         3.2724849029   -0.5683764726   -9.9307419367
C         1.2182172651   -0.4706099859   -5.0479996413
C         0.0269052227   -0.4396520481   -4.3687895770
H        -0.9108735816   -0.4303549788   -4.9137426383
C         0.0125372135   -0.4189895493   -2.9632180806
C         2.6808951729   -0.5126855828    0.0572797925
C         3.3885209397    0.6386312594    0.4064003748
C         4.6082696060    0.5514490382    1.0779604935
H         5.1279961242    1.4661292075    1.3339331352
C         5.1344792788   -0.6918648630    1.4063141565
O         6.3054394037   -0.8778583189    2.0536982439
C         4.4356253485   -1.8461772832    1.0593270285
H         4.8528519430   -2.8130161759    1.3174754164
C         3.2239180339   -1.7628671672    0.3917519429
C         7.0574697478    0.2552566082    2.4161496528
H         7.9556995747   -0.1116243498    2.9081820715
H         7.3539749053    0.8498449509    1.5468443063
H         6.5183782045    0.9032304744    3.1137720509
C         2.8327649739    1.9902988683    0.0511282865
H         3.4846888967    2.7985232894    0.3820860695
H         2.6993785595    2.0923905067   -1.0282262380
H         1.8516240850    2.1486841235    0.5040177353
C         2.4884600104   -3.0206438650    0.0185556092
H         3.0182048237   -3.9136669575    0.3494212306
H         2.3548895615   -3.0963746866   -1.0629739693
H         1.4897248227   -3.0445398014    0.4600658098
C        -2.6902792774   -0.4013972788   -2.9962262320
C        -3.3083119646   -1.6148607100   -3.3100693016
C        -4.5063644598   -1.6477395188   -4.0240679039
H        -4.9527968667   -2.6089282028   -4.2458512467
C        -5.1049800863   -0.4649853353   -4.4372943328
O        -6.2621290206   -0.3964589368   -5.1308873539
C        -4.4970840453    0.7502287125   -4.1320596171
H        -4.9673622679    1.6708615860   -4.4588216010
C        -3.3068907272    0.7863807483   -3.4220941149
C        -6.9226633915   -1.5966213539   -5.4563926970
H        -7.8209055893   -1.3189358668   -6.0037286792
H        -6.3133241104   -2.2450818852   -6.0932512586
H        -7.2173871750   -2.1609814096   -4.5664098241
C        -2.6687403872    2.1115012195   -3.1141692177
H        -3.2682683970    2.9446570665   -3.4802476845
H        -1.6792183564    2.1893204149   -3.5700584741
H        -2.5315775213    2.2468430009   -2.0394098100
C        -2.6788594443   -2.9126349645   -2.8838605977
H        -3.2826722679   -3.7716730244   -3.1764087739
H        -1.6891719188   -3.0384563426   -3.3283124205
H        -2.5462510266   -2.9546000671   -1.8009136449
