104
	Energy:     317.7455471
C          2.33171       -0.83584       -0.63286
C          2.98084       -0.50318       -1.86164
B          3.85421       -1.58437       -2.62740
C          4.00255       -3.03675       -2.00458
C          3.34910       -3.36790       -0.77726
B          2.47105       -2.28937       -0.01902
C          4.77765       -4.01312       -2.67440
C          4.89815       -5.27201       -2.10244
C          4.27457       -5.58830       -0.90733
C          3.49665       -4.66257       -0.22627
C          1.55184        0.13516        0.03852
C          1.44911        1.40274       -0.51664
C          2.08792        1.72958       -1.70067
C          2.85806        0.80379       -2.39063
C          6.43062       -6.73359       -3.65380
C          6.99959       -8.02730       -3.76338
C          6.75752       -9.01327       -2.76739
C          5.94384       -8.69876       -1.66148
C          5.41392       -7.42634       -1.60129
C          5.62994       -6.46024       -2.54404
C          5.63103       -9.58440       -0.61178
C          4.79647       -9.14427        0.45242
C          4.27786       -7.82509        0.46675
C          4.61022       -6.97735       -0.59074
C          1.63454        5.31663       -3.00192
C          2.13121        3.98938       -3.03577
C          1.77613        3.12875       -1.99627
C          0.97122        3.57300       -0.98457
C          0.46262        4.85302       -0.90544
C          0.79894        5.75183       -1.93648
C          0.73173        2.59423       -0.06085
C         -0.07169        2.86169        1.04835
C         -0.61936        4.16278        1.17700
C         -0.35357        5.16184        0.20026
C          6.61446       -0.67162       -5.24061
C          5.99354       -1.00579       -4.02015
C          4.58410       -1.20924       -3.99722
C          3.82343       -1.07489       -5.19347
C          4.48866       -0.74091       -6.38935
C          5.86629       -0.53950       -6.42144
C          6.80791       -1.12025       -2.72791
C          2.31187       -1.31915       -5.17631
O          6.44082       -0.21733       -7.61224
C          7.78543        0.01894       -7.81565
C          1.66295       -2.54774        3.79097
C          2.31536       -2.21598        2.58758
C          1.75280       -2.65456        1.35705
C          0.55092       -3.41548        1.35044
C         -0.06906       -3.72172        2.57862
C          0.48394       -3.28996        3.79557
C          3.62018       -1.41644        2.59130
C         -0.05975       -3.86802        0.02192
O         -0.09366       -3.57083        4.99525
C         -1.26200       -4.28342        5.17499
H          5.27842       -3.79926       -3.60961
H          3.02258       -4.94217        0.70565
H          1.04138       -0.08672        0.96670
H          3.34491        1.09310       -3.31275
H          6.61282       -5.97988       -4.40845
H          7.62503       -8.26675       -4.61332
H          7.19860       -9.99758       -2.86256
H          6.02142      -10.59438       -0.61046
H          4.55533       -9.82302        1.25992
H          3.64332       -7.48546        1.27468
H          1.89392        6.00557       -3.79499
H          2.76708        3.65366       -3.84430
H          0.42613        6.76833       -1.92237
H         -0.27104        2.09834        1.78884
H         -1.24607        4.39805        2.02717
H         -0.77803        6.15188        0.31021
H          7.67872       -0.50861       -5.27913
H          3.94624       -0.63455       -7.31724
H          6.39598       -0.39518       -1.99272
C          8.30986       -0.84992       -2.83745
H          6.69460       -2.14193       -2.31427
H          2.13078       -2.35085       -4.80386
C          1.58257       -1.18541       -6.51465
H          1.83482       -0.60438       -4.47641
H          7.95223        0.25812       -8.88584
H          8.37864       -0.88510       -7.56064
H          8.12105        0.88463       -7.20550
H          2.06190       -2.23531        4.74483
H         -0.98261       -4.29279        2.59568
H          3.47170       -0.48234        2.01083
H          4.40233       -2.02505        2.08723
C          4.17195       -1.01594        3.96065
H          0.67439       -4.50765       -0.51088
H         -0.25578       -2.96494       -0.59630
C         -1.37035       -4.65329        0.10250
H         -1.48161       -4.34899        6.26028
H         -2.10903       -3.76632        4.67548
H         -1.15055       -5.31413        4.77575
H          1.97820       -1.91906       -7.24890
H          1.68585       -0.15372       -6.91304
H          0.50145       -1.39261       -6.36761
H         -1.70788       -4.91309       -0.92310
H         -1.22509       -5.59761        0.66880
H         -2.16277       -4.03947        0.58156
H          3.45157       -0.36087        4.49482
H          5.11895       -0.45180        3.82545
H          4.39133       -1.91829        4.57036
H          8.78831       -1.58116       -3.52315
H          8.77765       -0.95805       -1.83604
H          8.49430        0.18557       -3.19476
