78
 Final energy is   -1855.44328827024     
N         0.0282519736    0.0875060838    0.0746636934
C         0.0104936039    0.0218949483    1.4523654151
C         1.1972090051    0.0940527501   -0.6561938828
C         1.1973658584   -0.2284158102    2.1635263972
C         1.1046533015   -0.3419270404    3.5432182064
H         1.9899720031   -0.5671967569    4.1217163248
C        -0.0999997706   -0.1795452716    4.2082336057
H        -0.1344337786   -0.2734780135    5.2849874046
C        -1.2600735280    0.1147426937    3.4947815454
H        -2.1976541758    0.2688868830    4.0101235145
C        -1.2120710511    0.2136675159    2.1269427498
H        -2.1094551799    0.4543691835    1.5764877172
C         2.4304041643   -0.0993517360   -0.0041187935
C         3.5786419309   -0.0781749911   -0.7819813110
H         4.5401480286   -0.2455885375   -0.3173823378
C         3.5320766792    0.1352560433   -2.1501386919
H         4.4495436799    0.1513264049   -2.7223805857
C         2.3057869272    0.3130605265   -2.7855099217
H         2.2541695830    0.4734199044   -3.8532976128
C         1.1457939367    0.2803128372   -2.0540238751
H         0.2055893643    0.4106364439   -2.5681247116
C        -1.2286785908    0.0677815173   -0.6186634839
C        -1.6939661025    1.1989848317   -1.2505501807
H        -1.1067555461    2.1070120414   -1.1946287880
C        -1.9394125374   -1.1219746576   -0.6631536210
H        -1.5679298663   -2.0163928855   -0.1803387869
C        -3.1462112142   -1.1193078028   -1.3263617479
H        -3.7359987651   -2.0274236798   -1.3396849115
C        -2.8806657940    1.1822501662   -1.9905308088
C        -3.6433095855    0.0111575385   -1.9842756621
C        -5.0197081678   -0.0856183397   -2.5753550904
H        -5.4928016458   -0.9874224139   -2.1825491107
H        -4.9746953996   -0.2134860084   -3.6603545120
C         2.5177225787   -0.4293174498    1.4652042799
C        -5.8714591739    1.1428817802   -2.2433048245
H        -6.9243267547    0.8584291071   -2.2078755145
H        -5.6184715564    1.4851611050   -1.2325001226
C        -5.6872769762    2.2024051524   -3.2833085801
C        -6.7807988239    2.6577266760   -3.9663483537
H        -7.7641822418    2.3226268154   -3.6542831211
C        -6.7003648127    3.5112815141   -5.0884225705
C        -7.8589897483    3.9494448942   -5.7317373973
N        -8.8303852957    4.3076281420   -6.2647248560
C        -5.3754115941    3.8578426292   -5.5473312291
C        -4.2692344220    3.4016962705   -4.8232349432
H        -3.2976652135    3.7273112332   -5.1715051522
C        -4.3657579449    2.6004011253   -3.7025063799
C        -5.1717958973    4.6410283739   -6.6944294172
N        -5.0020725188    5.2908879122   -7.6418038433
C        -3.1252396317    2.4529265549   -2.8224120272
C        -1.8610553872    2.6272660833   -3.6510634715
C        -1.3789744788    1.7786582798   -4.6290572414
H        -1.9207012863    0.8795395518   -4.8984621112
C        -0.2002771926    2.1184167708   -5.2817146627
H         0.1864757213    1.4763374891   -6.0628018050
C         0.4762627161    3.2903773213   -4.9525984618
H         1.3881029410    3.5459246007   -5.4766489804
C        -0.0124560893    4.1412057530   -3.9703336159
H         0.5141102189    5.0559478449   -3.7279954825
C        -1.1898065915    3.8009924767   -3.3174505042
C        -1.9404042169    4.4736808826   -2.2595562698
C        -1.7103900385    5.6739550894   -1.6056176502
H        -0.8561602756    6.2903786980   -1.8580687375
C        -2.6033478761    6.0803364749   -0.6227907051
H        -2.4434375373    7.0174685394   -0.1058493138
C        -3.7079702687    5.2968853988   -0.3033819905
H        -4.3990680189    5.6319377475    0.4592743663
C        -3.9404500314    4.0948750860   -0.9606261989
H        -4.8128774181    3.5014564080   -0.7172636553
C        -3.0513226554    3.6892266460   -1.9374499999
C         3.5889821545    0.4468860669    2.1349775812
H         4.5629281837    0.3028367158    1.6713489406
H         3.7036287989    0.1914629529    3.1866165379
H         3.3293348958    1.5025550156    2.0652568962
C         2.8983403641   -1.9223292273    1.5824670754
H         3.8584924623   -2.1096696576    1.1019991201
H         2.1511978827   -2.5583551098    1.1068860339
H         2.9786200810   -2.2164005464    2.6289060916
