78
 Final energy is   -1855.43263640678     
N         0.0228758130    0.0886303360    0.0802732185
C         0.0075016039    0.0082454605    1.4578261235
C         1.1917235107    0.1141218026   -0.6507933227
C         1.1959184575   -0.2443730493    2.1650139838
C         1.1048478339   -0.3747463970    3.5432529433
H         1.9920920713   -0.6019384641    4.1180373834
C        -0.0997337761   -0.2259250935    4.2114072053
H        -0.1327438967   -0.3329335507    5.2869716954
C        -1.2610663169    0.0732098459    3.5027079077
H        -2.1985541326    0.2189587400    4.0206100048
C        -1.2145932838    0.1889573275    2.1360141650
H        -2.1125159897    0.4351469392    1.5888770214
C         2.4267528802   -0.0770780282   -0.0011664121
C         3.5744604931   -0.0350582185   -0.7785267236
H         4.5373477535   -0.1996508440   -0.3157954438
C         3.5262599002    0.1964097973   -2.1437727455
H         4.4437080658    0.2291438122   -2.7153088350
C         2.2986856961    0.3706920065   -2.7768541953
H         2.2442580811    0.5456779220   -3.8421269576
C         1.1389099423    0.3168095143   -2.0462721646
H         0.1979610007    0.4442710129   -2.5598521397
C        -1.2348245032    0.0687090575   -0.6107605670
C        -1.6988860302    1.1993860441   -1.2448018160
H        -1.1122148951    2.1078919340   -1.1904488217
C        -1.9487300636   -1.1197223118   -0.6512879389
H        -1.5788424034   -2.0143433170   -0.1675855792
C        -3.1563525976   -1.1152598420   -1.3128352237
H        -3.7486295555   -2.0217972512   -1.3231424368
C        -2.8850888991    1.1834783663   -1.9850099998
C        -3.6516351353    0.0145594187   -1.9735313775
C        -5.0298086329   -0.0780826278   -2.5607361835
H        -5.5060393877   -0.9766282708   -2.1637168464
H        -4.9879998587   -0.2084903613   -3.6454721164
C         2.5171451070   -0.4281037469    1.4634216765
C        -5.8738869722    1.1570070724   -2.2317200082
H        -6.9281602666    0.8782072931   -2.1919848981
H        -5.6160444849    1.5008346145   -1.2221396861
C        -5.6863377558    2.2103768194   -3.2770994839
C        -6.7784461473    2.6694632373   -3.9605601266
H        -7.7637637434    2.3450039769   -3.6432774235
C        -6.6950386021    3.5118912910   -5.0892425595
C        -7.8550433450    3.9523631324   -5.7311921669
N        -8.8292749166    4.3087620950   -6.2585042675
C        -5.3692311958    3.8440506682   -5.5552969002
C        -4.2652389212    3.3859449913   -4.8332519752
H        -3.2926525119    3.7017115292   -5.1877215164
C        -4.3632008108    2.5923151357   -3.7053410190
C        -5.1607612454    4.6170032217   -6.7103485358
N        -4.9815037141    5.2567409485   -7.6619180168
C        -3.1248361063    2.4507444876   -2.8235762764
C        -1.8588145438    2.6156419288   -3.6512325706
C        -1.3825903440    1.7628025805   -4.6283818777
H        -1.9333143143    0.8695234237   -4.8988673185
C        -0.2023751510    2.0941624985   -5.2825859088
H         0.1772999538    1.4508250284   -6.0661635074
C         0.4818105839    3.2619207680   -4.9549041509
H         1.3933965658    3.5128543956   -5.4816804685
C        -0.0011599205    4.1169747579   -3.9735824016
H         0.5302319256    5.0298605689   -3.7348321629
C        -1.1804976880    3.7860118371   -3.3197684709
C        -1.9295356292    4.4672933610   -2.2664049049
C        -1.6960101602    5.6698830041   -1.6184027223
H        -0.8384903619    6.2812905888   -1.8718671765
C        -2.5907870808    6.0866232698   -0.6418235326
H        -2.4289861119    7.0264686760   -0.1305216851
C        -3.7012858850    5.3111282403   -0.3234808231
H        -4.3950966135    5.6555436460    0.4324956570
C        -3.9375269573    4.1068786601   -0.9743794373
H        -4.8162822274    3.5214374418   -0.7349078426
C        -3.0459067863    3.6902381681   -1.9444508316
C         3.5831560314    0.4447680500    2.1455036698
H         4.5586610092    0.3125219515    1.6815630484
H         3.6984748638    0.1767731019    3.1939548868
H         3.3182700628    1.4999054168    2.0895549421
C         2.9066736264   -1.9202486143    1.5588902770
H         3.8678363000   -2.0961812485    1.0760375132
H         2.1636795368   -2.5541226238    1.0740658932
H         2.9887475739   -2.2301377979    2.6006571639
