78
 Final energy is   -1855.43588599266     
N         0.0247227017    0.0882272594    0.0783696785
C         0.0084590094    0.0127457494    1.4560003105
C         1.1936667596    0.1075412961   -0.6525727125
C         1.1963340178   -0.2390320288    2.1645877961
C         1.1046443890   -0.3637343826    3.5433233107
H         1.9912347890   -0.5902296890    4.1193870839
C        -0.1000015681   -0.2104206716    4.2103965821
H        -0.1335294023   -0.3129994556    5.2863802609
C        -1.2608934425    0.0869811317    3.5000435615
H        -2.1984452309    0.2355134676    4.0170509487
C        -1.2138473850    0.1970598078    2.1329394455
H        -2.1115722246    0.4413445989    1.5846301194
C         2.4280574782   -0.0843961279   -0.0020539133
C         3.5760064838   -0.0492116545   -0.7795174073
H         4.5384010945   -0.2146554934   -0.3160667342
C         3.5284612072    0.1762792695   -2.1457598702
H         4.4459729407    0.2035099685   -2.7174908257
C         2.3013604732    0.3517775238   -2.7796691505
H         2.2479581265    0.5219693583   -3.8457924853
C         1.1414374966    0.3049462285   -2.0488398790
H         0.2007843741    0.4335831187   -2.5626306091
C        -1.2326945235    0.0683210647   -0.6135097723
C        -1.6971638680    1.1991828031   -1.2467870732
H        -1.1103393482    2.1075387936   -1.1918647601
C        -1.9455214029   -1.1205576308   -0.6553851825
H        -1.5751175747   -2.0151245875   -0.1719902867
C        -3.1529092682   -1.1166273730   -1.3174070137
H        -3.7443952913   -2.0236687937   -1.3286967018
C        -2.8835476863    1.1830674364   -1.9869175622
C        -3.6488400339    0.0134387476   -1.9770978935
C        -5.0265264024   -0.0805136323   -2.5653621638
H        -5.5017187343   -0.9800888892   -2.1695962298
H        -4.9838607588   -0.2101438802   -3.6501856207
C         2.5172992892   -0.4285794778    1.4641163847
C        -5.8730074168    1.1524782069   -2.2353217905
H        -6.9268310361    0.8718532260   -2.1968861794
H        -5.6166502140    1.4958133157   -1.2253560135
C        -5.6866140358    2.2077956829   -3.2790170705
C        -6.7792101522    2.6655954186   -3.9623330112
H        -7.7638950049    2.3376508716   -3.6467066069
C        -6.6968496664    3.5115876133   -5.0889077008
C        -7.8565614270    3.9510384866   -5.7312419852
N        -8.8301849590    4.3075348385   -6.2601327366
C        -5.3713267104    3.8485448738   -5.5526610821
C        -4.2666027274    3.3911226935   -4.8299969882
H        -3.2943618356    3.7101635242   -5.1824704332
C        -4.3640157875    2.5949489804   -3.7044337692
C        -5.1643740873    4.6248883287   -6.7051141811
N        -4.9879161337    5.2679168983   -7.6552739645
C        -3.1249183458    2.4514891866   -2.8232558162
C        -1.8594970944    2.6195106618   -3.6512652591
C        -1.3814381973    1.7681600679   -4.6288228474
H        -1.9293102651    0.8730465546   -4.8990644430
C        -0.2018013617    2.1023636078   -5.2826247382
H         0.1800435135    1.4595779473   -6.0655830346
C         0.4798327173    3.2715322115   -4.9544990795
H         1.3913670445    3.5241223076   -5.4805507918
C        -0.0049428152    4.1251061868   -3.9727507823
H         0.5247996447    5.0386648529   -3.7329033422
C        -1.1835154596    3.7909967393   -3.3190934851
C        -1.9330275281    4.4694000653   -2.2641660330
C        -1.7006789656    5.6712092597   -1.6141725401
H        -0.8442980518    6.2843352324   -1.8673427522
C        -2.5948574439    6.0844981516   -0.6355109083
H        -2.4337280307    7.0234748778   -0.1223737753
C        -3.7034208085    5.3063716564   -0.3168403143
H        -4.3964096753    5.6477342295    0.4412761616
C        -3.9384083159    4.1028797174   -0.9698619549
H        -4.8151717738    3.5148645963   -0.7292566598
C        -3.0475861929    3.6898852797   -1.9421536427
C         3.5851752569    0.4451357842    2.1422499162
H         4.5602070423    0.3087431487    1.6785364370
H         3.7001000540    0.1812941977    3.1917899285
H         3.3223151361    1.5005414066    2.0817292398
C         2.9035876877   -1.9211430316    1.5667087062
H         3.8643447955   -2.1010671345    1.0845442712
H         2.1590794557   -2.5556021957    1.0849693129
H         2.9850290583   -2.2258728236    2.6100359834
