78
 Final energy is   -1855.43869178177     
N         0.0260096890    0.0878930938    0.0769409132
C         0.0092305635    0.0161220143    1.4545986418
C         1.1949257387    0.1021876730   -0.6540429922
C         1.1967353509   -0.2351381456    2.1641263079
C         1.1046798808   -0.3556616850    3.5432330573
H         1.9908148068   -0.5816958395    4.1201829975
C        -0.0999581212   -0.1989083966    4.2095563996
H        -0.1338297970   -0.2982562441    5.2858353852
C        -1.2605363579    0.0974161584    3.4980489421
H        -2.1980859480    0.2481069366    4.0144464478
C        -1.2131475275    0.2033255258    2.1306642114
H        -2.1107338246    0.4463413751    1.5815537236
C         2.4288861434   -0.0903068203   -0.0029849838
C         3.5769255146   -0.0605267564   -0.7806682269
H         4.5389962808   -0.2266217162   -0.3167721485
C         3.5297040330    0.1601916627   -2.1476762391
H         4.4471758095    0.1831108819   -2.7196671139
C         2.3028748845    0.3365096062   -2.7820977103
H         2.2501384732    0.5028031051   -3.8488898204
C         1.1429539473    0.2952066562   -2.0509392674
H         0.2024510878    0.4245310011   -2.5647974481
C        -1.2312758186    0.0681437795   -0.6154129830
C        -1.6960535866    1.1991513422   -1.2481410059
H        -1.1090603982    2.1073804479   -1.1929097267
C        -1.9433195838   -1.1210702733   -0.6583236336
H        -1.5725016083   -2.0156105547   -0.1752082118
C        -3.1504517771   -1.1176294381   -1.3208453897
H        -3.7412413371   -2.0251123578   -1.3330216515
C        -2.8825628836    1.1828012958   -1.9881990857
C        -3.6468321637    0.0126117731   -1.9798162716
C        -5.0239907079   -0.0824505062   -2.5692536949
H        -5.4983667698   -0.9829013482   -2.1746488916
H        -4.9803455264   -0.2114116291   -3.6541378279
C         2.5175081031   -0.4287812459    1.4644630751
C        -5.8725477762    1.1488135711   -2.2385010263
H        -6.9260125958    0.8667207389   -2.2013388090
H        -5.6176108220    1.4916780511   -1.2281631928
C        -5.6869096311    2.2058084988   -3.2807086006
C        -6.7798014535    2.6626026794   -3.9640387838
H        -7.7640082269    2.3318637916   -3.6498687134
C        -6.6981068899    3.5114595730   -5.0889145049
C        -7.8573824682    3.9502549706   -5.7317698339
N        -8.8301430890    4.3072637292   -6.2623426000
C        -5.3727651508    3.8522024129   -5.5506704717
C        -4.2675341367    3.3953165781   -4.8273312125
H        -3.2955364713    3.7169495882   -5.1781005785
C        -4.3646829107    2.5971714607   -3.7036423063
C        -5.1669711132    4.6312132398   -6.7010235319
N        -4.9929573302    5.2769028499   -7.6500751652
C        -3.1251193523    2.4521052592   -2.8227805807
C        -1.8601434967    2.6224659608   -3.6509747443
C        -1.3806124888    1.7721629251   -4.6287296523
H        -1.9262275205    0.8755786559   -4.8986888070
C        -0.2013164612    2.1084374664   -5.2820890489
H         0.1823536182    1.4659323802   -6.0643688325
C         0.4784484178    3.2786260930   -4.9535584948
H         1.3901022082    3.5323124917   -5.4788594674
C        -0.0077736336    4.1311495330   -3.9715903586
H         0.5207872033    5.0451462791   -3.7307984507
C        -1.1858840815    3.7947366459   -3.3182113077
C        -1.9357717402    4.4709756194   -2.2621407552
C        -1.7042139705    5.6721788040   -1.6106444991
H        -0.8485902705    6.2864828419   -1.8635309567
C        -2.5979435009    6.0829577328   -0.6304604632
H        -2.4372149968    7.0212290135   -0.1158848350
C        -3.7051212418    5.3029417905   -0.3115887820
H        -4.3974238756    5.6419953483    0.4481927473
C        -3.9392522908    4.1000350291   -0.9662349145
H        -4.8144735047    3.5101049632   -0.7246296642
C        -3.0490611867    3.6897031790   -1.9401878583
C         3.5863579195    0.4464757776    2.1392095597
H         4.5609768943    0.3076031629    1.6753780281
H         3.7014058792    0.1859547440    3.1895623326
H         3.3242011058    1.5018590882    2.0751381406
C         2.9021749574   -1.9213675843    1.5729646422
H         3.8628531687   -2.1038668180    1.0916451351
H         2.1569815610   -2.5567809352    1.0935395144
H         2.9831005470   -2.2218789955    2.6175418056
