78
 Final energy is   -1855.43263640678     
N         0.0228758130    0.0886303360    0.0802732185
C         0.0075016039    0.0082454605    1.4578261235
C         1.1917235107    0.1141218026   -0.6507933227
C         1.1959184575   -0.2443730493    2.1650139838
C         1.1048478339   -0.3747463970    3.5432529433
H         1.9920920713   -0.6019384641    4.1180373834
C        -0.0997337761   -0.2259250935    4.2114072053
H        -0.1327438967   -0.3329335507    5.2869716954
C        -1.2610663169    0.0732098459    3.5027079077
H        -2.1985541326    0.2189587400    4.0206100048
C        -1.2145932838    0.1889573275    2.1360141650
H        -2.1125159897    0.4351469392    1.5888770214
C         2.4267528802   -0.0770780282   -0.0011664121
C         3.5744604931   -0.0350582185   -0.7785267236
H         4.5373477535   -0.1996508440   -0.3157954438
C         3.5262599002    0.1964097973   -2.1437727455
H         4.4437080658    0.2291438122   -2.7153088350
C         2.2986856961    0.3706920065   -2.7768541953
H         2.2442580811    0.5456779220   -3.8421269576
C         1.1389099423    0.3168095143   -2.0462721646
H         0.1979610007    0.4442710129   -2.5598521397
C        -1.2348245032    0.0687090575   -0.6107605670
C        -1.6988860302    1.1993860441   -1.2448018160
H        -1.1122148951    2.1078919340   -1.1904488217
C        -1.9487300636   -1.1197223118   -0.6512879389
H        -1.5788424034   -2.0143433170   -0.1675855792
C        -3.1563525976   -1.1152598420   -1.3128352237
H        -3.7486295555   -2.0217972512   -1.3231424368
C        -2.8850888991    1.1834783663   -1.9850099998
C        -3.6516351353    0.0145594187   -1.9735313775
C        -5.0298086329   -0.0780826278   -2.5607361835
H        -5.5060393877   -0.9766282708   -2.1637168464
H        -4.9879998587   -0.2084903613   -3.6454721164
C         2.5171451070   -0.4281037469    1.4634216765
C        -5.8738869722    1.1570070724   -2.2317200082
H        -6.9281602666    0.8782072931   -2.1919848981
H        -5.6160444849    1.5008346145   -1.2221396861
C        -5.6863377558    2.2103768194   -3.2770994839
C        -6.7784461473    2.6694632373   -3.9605601266
H        -7.7637637434    2.3450039769   -3.6432774235
C        -6.6950386021    3.5118912910   -5.0892425595
C        -7.8550433450    3.9523631324   -5.7311921669
N        -8.8292749166    4.3087620950   -6.2585042675
C        -5.3692311958    3.8440506682   -5.5552969002
C        -4.2652389212    3.3859449913   -4.8332519752
H        -3.2926525119    3.7017115292   -5.1877215164
C        -4.3632008108    2.5923151357   -3.7053410190
C        -5.1607612454    4.6170032217   -6.7103485358
N        -4.9815037141    5.2567409485   -7.6619180168
C        -3.1248361063    2.4507444876   -2.8235762764
C        -1.8588145438    2.6156419288   -3.6512325706
C        -1.3825903440    1.7628025805   -4.6283818777
H        -1.9333143143    0.8695234237   -4.8988673185
C        -0.2023751510    2.0941624985   -5.2825859088
H         0.1772999538    1.4508250284   -6.0661635074
C         0.4818105839    3.2619207680   -4.9549041509
H         1.3933965658    3.5128543956   -5.4816804685
C        -0.0011599205    4.1169747579   -3.9735824016
H         0.5302319256    5.0298605689   -3.7348321629
C        -1.1804976880    3.7860118371   -3.3197684709
C        -1.9295356292    4.4672933610   -2.2664049049
C        -1.6960101602    5.6698830041   -1.6184027223
H        -0.8384903619    6.2812905888   -1.8718671765
C        -2.5907870808    6.0866232698   -0.6418235326
H        -2.4289861119    7.0264686760   -0.1305216851
C        -3.7012858850    5.3111282403   -0.3234808231
H        -4.3950966135    5.6555436460    0.4324956570
C        -3.9375269573    4.1068786601   -0.9743794373
H        -4.8162822274    3.5214374418   -0.7349078426
C        -3.0459067863    3.6902381681   -1.9444508316
C         3.5831560314    0.4447680500    2.1455036698
H         4.5586610092    0.3125219515    1.6815630484
H         3.6984748638    0.1767731019    3.1939548868
H         3.3182700628    1.4999054168    2.0895549421
C         2.9066736264   -1.9202486143    1.5588902770
H         3.8678363000   -2.0961812485    1.0760375132
H         2.1636795368   -2.5541226238    1.0740658932
H         2.9887475739   -2.2301377979    2.6006571639
78
 Final energy is   -1855.43359739596     
N         0.0234303480    0.0885061250    0.0796975867
C         0.0077905084    0.0095973905    1.4572756681
C         1.1923057707    0.1121164966   -0.6513392126
C         1.1960450423   -0.2427705541    2.1648825743
C         1.1047921809   -0.3714294349    3.5432738559
H         1.9918443645   -0.5984053399    4.1184396177
C        -0.0998067755   -0.2212513415    4.2111082466
H        -0.1329702659   -0.3269198195    5.2868015810
C        -1.2610081468    0.0773611259    3.5019123445
H        -2.1985133850    0.2239523163    4.0195487577
C        -1.2143661554    0.1913987172    2.1350923860
H        -2.1122294534    0.4370182310    1.5876031114
C         2.4271437063   -0.0793186998   -0.0014489851
C         3.5749218775   -0.0393920320   -0.7788511310
H         4.5376600137   -0.2042462906   -0.3159027733
C         3.5269162690    0.1902491825   -2.1444040570
H         4.4443814545    0.2212949493   -2.7160092896
C         2.2994836992    0.3649179450   -2.7777276417
H         2.2453637336    0.5384456809   -3.8432610517
C         1.1396653673    0.3132035252   -2.0470592624
H         0.1988057382    0.4410495718   -2.5606958781
C        -1.2341876811    0.0685936686   -0.6115887032
C        -1.6983693970    1.1993275215   -1.2453981963
H        -1.1116500695    2.1077871945   -1.1908749085
C        -1.9477686495   -1.1199720173   -0.6525245640
H        -1.5777283391   -2.0145787458   -0.1689160798
C        -3.1553200450   -1.1156662425   -1.3142147928
H        -3.7473591437   -2.0223554984   -1.3248219051
C        -2.8846271667    1.1833620977   -1.9855830222
C        -3.6507975046    0.0142295042   -1.9746049532
C        -5.0288245830   -0.0788077099   -2.5621290333
H        -5.5047418409   -0.9776646026   -2.1654869597
H        -4.9867575322   -0.2089807909   -3.6468911328
C         2.5171954507   -0.4282478572    1.4636270437
C        -5.8736272546    1.1556516727   -2.2328085181
H        -6.9277657226    0.8763014525   -2.1934681633
H        -5.6162368009    1.4993299634   -1.2231097942
C        -5.6864220925    2.2096063083   -3.2776823793
C        -6.7786731103    2.6682900845   -3.9611160496
H        -7.7638021079    2.3427703123   -3.6443433344
C        -6.6955778842    3.5117845296   -5.0891689221
C        -7.8554994662    3.9519129259   -5.7312525837
N        -8.8295588921    4.3083010704   -6.2590459087
C        -5.3698516528    3.8454114768   -5.5545114257
C        -4.2656442852    3.3875223695   -4.8322684404
H        -3.2931606760    3.7042881994   -5.1861261413
C        -4.3634436598    2.5931206902   -3.7050670987
C        -5.1618234951    4.6193952297   -6.7087748613
N        -4.9833847948    5.2601299277   -7.6599125078
C        -3.1248645568    2.4509815868   -2.8234719400
C        -1.8590195758    2.6168228854   -3.6512286425
C        -1.3822482034    1.7644444570   -4.6285147964
H        -1.9321234007    0.8706229250   -4.8989436620
C        -0.2022082591    2.0966675879   -5.2825970906
H         0.1781111677    1.4535104917   -6.0660051169
C         0.4812096586    3.2648475072   -4.9547714076
H         1.3927742227    3.5162900607   -5.4813351820
C        -0.0023002246    4.1194441062   -3.9733095477
H         0.5285900978    5.0325354720   -3.7342278456
C        -1.1814030984    3.7875237359   -3.3195389995
C        -1.9305843754    4.4679307167   -2.2656990520
C        -1.6974114977    5.6702797066   -1.6170875061
H        -0.8402331599    6.2822054196   -1.8704584743
C        -2.5920136172    6.0859805239   -0.6398851785
H        -2.4304156561    7.0255628314   -0.1280262745
C        -3.7019379091    5.3096985659   -0.3214586404
H        -4.3955100657    5.6531980570    0.4351545757
C        -3.9378029522    4.1056823647   -0.9730064764
H        -4.8159712168    3.5194755902   -0.7332125759
C        -3.0464166094    3.6901386732   -1.9437410630
C         3.5837444412    0.4449280257    2.1444986259
H         4.5591108085    0.3114555404    1.6806235567
H         3.6989520219    0.1782068271    3.1932849920
H         3.3194356984    1.5001392063    2.0871541577
C         2.9057840784   -1.9205103043    1.5612824715
H         3.8668369503   -2.0976373981    1.0786551965
H         2.1623573965   -2.5545914739    1.0773893691
H         2.9876567124   -2.2288246109    2.6035292948
78
 Final energy is   -1855.43588599266     
N         0.0247227017    0.0882272594    0.0783696785
C         0.0084590094    0.0127457494    1.4560003105
C         1.1936667596    0.1075412961   -0.6525727125
C         1.1963340178   -0.2390320288    2.1645877961
C         1.1046443890   -0.3637343826    3.5433233107
H         1.9912347890   -0.5902296890    4.1193870839
C        -0.1000015681   -0.2104206716    4.2103965821
H        -0.1335294023   -0.3129994556    5.2863802609
C        -1.2608934425    0.0869811317    3.5000435615
H        -2.1984452309    0.2355134676    4.0170509487
C        -1.2138473850    0.1970598078    2.1329394455
H        -2.1115722246    0.4413445989    1.5846301194
C         2.4280574782   -0.0843961279   -0.0020539133
C         3.5760064838   -0.0492116545   -0.7795174073
H         4.5384010945   -0.2146554934   -0.3160667342
C         3.5284612072    0.1762792695   -2.1457598702
H         4.4459729407    0.2035099685   -2.7174908257
C         2.3013604732    0.3517775238   -2.7796691505
H         2.2479581265    0.5219693583   -3.8457924853
C         1.1414374966    0.3049462285   -2.0488398790
H         0.2007843741    0.4335831187   -2.5626306091
C        -1.2326945235    0.0683210647   -0.6135097723
C        -1.6971638680    1.1991828031   -1.2467870732
H        -1.1103393482    2.1075387936   -1.1918647601
C        -1.9455214029   -1.1205576308   -0.6553851825
H        -1.5751175747   -2.0151245875   -0.1719902867
C        -3.1529092682   -1.1166273730   -1.3174070137
H        -3.7443952913   -2.0236687937   -1.3286967018
C        -2.8835476863    1.1830674364   -1.9869175622
C        -3.6488400339    0.0134387476   -1.9770978935
C        -5.0265264024   -0.0805136323   -2.5653621638
H        -5.5017187343   -0.9800888892   -2.1695962298
H        -4.9838607588   -0.2101438802   -3.6501856207
C         2.5172992892   -0.4285794778    1.4641163847
C        -5.8730074168    1.1524782069   -2.2353217905
H        -6.9268310361    0.8718532260   -2.1968861794
H        -5.6166502140    1.4958133157   -1.2253560135
C        -5.6866140358    2.2077956829   -3.2790170705
C        -6.7792101522    2.6655954186   -3.9623330112
H        -7.7638950049    2.3376508716   -3.6467066069
C        -6.6968496664    3.5115876133   -5.0889077008
C        -7.8565614270    3.9510384866   -5.7312419852
N        -8.8301849590    4.3075348385   -6.2601327366
C        -5.3713267104    3.8485448738   -5.5526610821
C        -4.2666027274    3.3911226935   -4.8299969882
H        -3.2943618356    3.7101635242   -5.1824704332
C        -4.3640157875    2.5949489804   -3.7044337692
C        -5.1643740873    4.6248883287   -6.7051141811
N        -4.9879161337    5.2679168983   -7.6552739645
C        -3.1249183458    2.4514891866   -2.8232558162
C        -1.8594970944    2.6195106618   -3.6512652591
C        -1.3814381973    1.7681600679   -4.6288228474
H        -1.9293102651    0.8730465546   -4.8990644430
C        -0.2018013617    2.1023636078   -5.2826247382
H         0.1800435135    1.4595779473   -6.0655830346
C         0.4798327173    3.2715322115   -4.9544990795
H         1.3913670445    3.5241223076   -5.4805507918
C        -0.0049428152    4.1251061868   -3.9727507823
H         0.5247996447    5.0386648529   -3.7329033422
C        -1.1835154596    3.7909967393   -3.3190934851
C        -1.9330275281    4.4694000653   -2.2641660330
C        -1.7006789656    5.6712092597   -1.6141725401
H        -0.8442980518    6.2843352324   -1.8673427522
C        -2.5948574439    6.0844981516   -0.6355109083
H        -2.4337280307    7.0234748778   -0.1223737753
C        -3.7034208085    5.3063716564   -0.3168403143
H        -4.3964096753    5.6477342295    0.4412761616
C        -3.9384083159    4.1028797174   -0.9698619549
H        -4.8151717738    3.5148645963   -0.7292566598
C        -3.0475861929    3.6898852797   -1.9421536427
C         3.5851752569    0.4451357842    2.1422499162
H         4.5602070423    0.3087431487    1.6785364370
H         3.7001000540    0.1812941977    3.1917899285
H         3.3223151361    1.5005414066    2.0817292398
C         2.9035876877   -1.9211430316    1.5667087062
H         3.8643447955   -2.1010671345    1.0845442712
H         2.1590794557   -2.5556021957    1.0849693129
H         2.9850290583   -2.2258728236    2.6100359834
78
 Final energy is   -1855.43869178177     
N         0.0260096890    0.0878930938    0.0769409132
C         0.0092305635    0.0161220143    1.4545986418
C         1.1949257387    0.1021876730   -0.6540429922
C         1.1967353509   -0.2351381456    2.1641263079
C         1.1046798808   -0.3556616850    3.5432330573
H         1.9908148068   -0.5816958395    4.1201829975
C        -0.0999581212   -0.1989083966    4.2095563996
H        -0.1338297970   -0.2982562441    5.2858353852
C        -1.2605363579    0.0974161584    3.4980489421
H        -2.1980859480    0.2481069366    4.0144464478
C        -1.2131475275    0.2033255258    2.1306642114
H        -2.1107338246    0.4463413751    1.5815537236
C         2.4288861434   -0.0903068203   -0.0029849838
C         3.5769255146   -0.0605267564   -0.7806682269
H         4.5389962808   -0.2266217162   -0.3167721485
C         3.5297040330    0.1601916627   -2.1476762391
H         4.4471758095    0.1831108819   -2.7196671139
C         2.3028748845    0.3365096062   -2.7820977103
H         2.2501384732    0.5028031051   -3.8488898204
C         1.1429539473    0.2952066562   -2.0509392674
H         0.2024510878    0.4245310011   -2.5647974481
C        -1.2312758186    0.0681437795   -0.6154129830
C        -1.6960535866    1.1991513422   -1.2481410059
H        -1.1090603982    2.1073804479   -1.1929097267
C        -1.9433195838   -1.1210702733   -0.6583236336
H        -1.5725016083   -2.0156105547   -0.1752082118
C        -3.1504517771   -1.1176294381   -1.3208453897
H        -3.7412413371   -2.0251123578   -1.3330216515
C        -2.8825628836    1.1828012958   -1.9881990857
C        -3.6468321637    0.0126117731   -1.9798162716
C        -5.0239907079   -0.0824505062   -2.5692536949
H        -5.4983667698   -0.9829013482   -2.1746488916
H        -4.9803455264   -0.2114116291   -3.6541378279
C         2.5175081031   -0.4287812459    1.4644630751
C        -5.8725477762    1.1488135711   -2.2385010263
H        -6.9260125958    0.8667207389   -2.2013388090
H        -5.6176108220    1.4916780511   -1.2281631928
C        -5.6869096311    2.2058084988   -3.2807086006
C        -6.7798014535    2.6626026794   -3.9640387838
H        -7.7640082269    2.3318637916   -3.6498687134
C        -6.6981068899    3.5114595730   -5.0889145049
C        -7.8573824682    3.9502549706   -5.7317698339
N        -8.8301430890    4.3072637292   -6.2623426000
C        -5.3727651508    3.8522024129   -5.5506704717
C        -4.2675341367    3.3953165781   -4.8273312125
H        -3.2955364713    3.7169495882   -5.1781005785
C        -4.3646829107    2.5971714607   -3.7036423063
C        -5.1669711132    4.6312132398   -6.7010235319
N        -4.9929573302    5.2769028499   -7.6500751652
C        -3.1251193523    2.4521052592   -2.8227805807
C        -1.8601434967    2.6224659608   -3.6509747443
C        -1.3806124888    1.7721629251   -4.6287296523
H        -1.9262275205    0.8755786559   -4.8986888070
C        -0.2013164612    2.1084374664   -5.2820890489
H         0.1823536182    1.4659323802   -6.0643688325
C         0.4784484178    3.2786260930   -4.9535584948
H         1.3901022082    3.5323124917   -5.4788594674
C        -0.0077736336    4.1311495330   -3.9715903586
H         0.5207872033    5.0451462791   -3.7307984507
C        -1.1858840815    3.7947366459   -3.3182113077
C        -1.9357717402    4.4709756194   -2.2621407552
C        -1.7042139705    5.6721788040   -1.6106444991
H        -0.8485902705    6.2864828419   -1.8635309567
C        -2.5979435009    6.0829577328   -0.6304604632
H        -2.4372149968    7.0212290135   -0.1158848350
C        -3.7051212418    5.3029417905   -0.3115887820
H        -4.3974238756    5.6419953483    0.4481927473
C        -3.9392522908    4.1000350291   -0.9662349145
H        -4.8144735047    3.5101049632   -0.7246296642
C        -3.0490611867    3.6897031790   -1.9401878583
C         3.5863579195    0.4464757776    2.1392095597
H         4.5609768943    0.3076031629    1.6753780281
H         3.7014058792    0.1859547440    3.1895623326
H         3.3242011058    1.5018590882    2.0751381406
C         2.9021749574   -1.9213675843    1.5729646422
H         3.8628531687   -2.1038668180    1.0916451351
H         2.1569815610   -2.5567809352    1.0935395144
H         2.9831005470   -2.2218789955    2.6175418056
78
 Final energy is   -1855.44328827024     
N         0.0282519736    0.0875060838    0.0746636934
C         0.0104936039    0.0218949483    1.4523654151
C         1.1972090051    0.0940527501   -0.6561938828
C         1.1973658584   -0.2284158102    2.1635263972
C         1.1046533015   -0.3419270404    3.5432182064
H         1.9899720031   -0.5671967569    4.1217163248
C        -0.0999997706   -0.1795452716    4.2082336057
H        -0.1344337786   -0.2734780135    5.2849874046
C        -1.2600735280    0.1147426937    3.4947815454
H        -2.1976541758    0.2688868830    4.0101235145
C        -1.2120710511    0.2136675159    2.1269427498
H        -2.1094551799    0.4543691835    1.5764877172
C         2.4304041643   -0.0993517360   -0.0041187935
C         3.5786419309   -0.0781749911   -0.7819813110
H         4.5401480286   -0.2455885375   -0.3173823378
C         3.5320766792    0.1352560433   -2.1501386919
H         4.4495436799    0.1513264049   -2.7223805857
C         2.3057869272    0.3130605265   -2.7855099217
H         2.2541695830    0.4734199044   -3.8532976128
C         1.1457939367    0.2803128372   -2.0540238751
H         0.2055893643    0.4106364439   -2.5681247116
C        -1.2286785908    0.0677815173   -0.6186634839
C        -1.6939661025    1.1989848317   -1.2505501807
H        -1.1067555461    2.1070120414   -1.1946287880
C        -1.9394125374   -1.1219746576   -0.6631536210
H        -1.5679298663   -2.0163928855   -0.1803387869
C        -3.1462112142   -1.1193078028   -1.3263617479
H        -3.7359987651   -2.0274236798   -1.3396849115
C        -2.8806657940    1.1822501662   -1.9905308088
C        -3.6433095855    0.0111575385   -1.9842756621
C        -5.0197081678   -0.0856183397   -2.5753550904
H        -5.4928016458   -0.9874224139   -2.1825491107
H        -4.9746953996   -0.2134860084   -3.6603545120
C         2.5177225787   -0.4293174498    1.4652042799
C        -5.8714591739    1.1428817802   -2.2433048245
H        -6.9243267547    0.8584291071   -2.2078755145
H        -5.6184715564    1.4851611050   -1.2325001226
C        -5.6872769762    2.2024051524   -3.2833085801
C        -6.7807988239    2.6577266760   -3.9663483537
H        -7.7641822418    2.3226268154   -3.6542831211
C        -6.7003648127    3.5112815141   -5.0884225705
C        -7.8589897483    3.9494448942   -5.7317373973
N        -8.8303852957    4.3076281420   -6.2647248560
C        -5.3754115941    3.8578426292   -5.5473312291
C        -4.2692344220    3.4016962705   -4.8232349432
H        -3.2976652135    3.7273112332   -5.1715051522
C        -4.3657579449    2.6004011253   -3.7025063799
C        -5.1717958973    4.6410283739   -6.6944294172
N        -5.0020725188    5.2908879122   -7.6418038433
C        -3.1252396317    2.4529265549   -2.8224120272
C        -1.8610553872    2.6272660833   -3.6510634715
C        -1.3789744788    1.7786582798   -4.6290572414
H        -1.9207012863    0.8795395518   -4.8984621112
C        -0.2002771926    2.1184167708   -5.2817146627
H         0.1864757213    1.4763374891   -6.0628018050
C         0.4762627161    3.2903773213   -4.9525984618
H         1.3881029410    3.5459246007   -5.4766489804
C        -0.0124560893    4.1412057530   -3.9703336159
H         0.5141102189    5.0559478449   -3.7279954825
C        -1.1898065915    3.8009924767   -3.3174505042
C        -1.9404042169    4.4736808826   -2.2595562698
C        -1.7103900385    5.6739550894   -1.6056176502
H        -0.8561602756    6.2903786980   -1.8580687375
C        -2.6033478761    6.0803364749   -0.6227907051
H        -2.4434375373    7.0174685394   -0.1058493138
C        -3.7079702687    5.2968853988   -0.3033819905
H        -4.3990680189    5.6319377475    0.4592743663
C        -3.9404500314    4.0948750860   -0.9606261989
H        -4.8128774181    3.5014564080   -0.7172636553
C        -3.0513226554    3.6892266460   -1.9374499999
C         3.5889821545    0.4468860669    2.1349775812
H         4.5629281837    0.3028367158    1.6713489406
H         3.7036287989    0.1914629529    3.1866165379
H         3.3293348958    1.5025550156    2.0652568962
C         2.8983403641   -1.9223292273    1.5824670754
H         3.8584924623   -2.1096696576    1.1019991201
H         2.1511978827   -2.5583551098    1.1068860339
H         2.9786200810   -2.2164005464    2.6289060916
