98
	Energy:     302.4808278
C          1.75775       -1.38703       -0.57999
C          2.62283       -1.00354       -1.65169
B          3.87559       -1.90069       -2.03735
C          4.15279       -3.22970       -1.21479
C          3.28761       -3.61333       -0.14318
B          2.03487       -2.71607        0.24258
C          5.24242       -4.06074       -1.57067
C          5.44842       -5.23076       -0.85435
C          4.60996       -5.60294        0.18155
C          3.52456       -4.82313        0.55304
C          0.66801       -0.55603       -0.22431
C          0.46174        0.61368       -0.94105
C          1.30002        0.98560       -1.97719
C          2.38558        0.20590       -2.34841
C          7.56192       -6.43514       -1.84144
C          8.36321       -7.59367       -1.68313
C          8.05882       -8.55514       -0.68024
C          6.94911       -8.35183        0.16321
C          6.20165       -7.20884       -0.03118
C          6.47145       -6.26907       -0.98653
C          6.54460       -9.22730        1.18992
C          5.40189       -8.90820        1.97431
C          4.66786       -7.71980        1.73302
C          5.10002       -6.87785        0.70740
C          0.50685        4.28955       -3.77178
C          1.24131        3.10156       -3.52984
C          0.80953        2.26007       -2.50368
C         -0.29216        2.59110       -1.76522
C         -1.04003        3.73371       -1.96023
C         -0.63591        4.60871       -2.98749
C         -0.56159        1.65176       -0.80934
C         -1.65208        1.81794        0.04553
C         -2.45377        2.97610       -0.11338
C         -2.14977        3.93710       -1.11684
C          7.01096       -0.72541       -4.06935
C          6.17912       -1.05176       -2.98393
C          4.84023       -1.47483       -3.23496
C          4.37346       -1.55091       -4.57634
C          5.23216       -1.20872       -5.63047
C          6.54187       -0.79922       -5.39159
C          6.75627       -0.91544       -1.57989
C          2.98005       -2.03505       -4.91222
O          7.32455       -0.48509       -6.45894
C          8.63756       -0.06517       -6.39089
C          0.67294       -3.41329        3.83280
C          1.53330       -3.06963        2.78047
C          1.06847       -3.14344        1.43827
C         -0.27020       -3.56579        1.18462
C         -1.10370       -3.89362        2.26831
C         -0.63654       -3.82203        3.59134
C          2.92631       -2.58635        3.11921
C         -0.84545       -3.69986       -0.22046
O         -1.42092       -4.13763        4.65701
C         -2.73402       -4.55684        4.58631
H          5.90932       -3.80944       -2.38459
H          2.88112       -5.15291        1.35795
H          0.00115       -0.80723        0.58968
H          3.02886        0.53542       -3.15356
H          7.78951       -5.70094       -2.60298
H          9.21517       -7.74804       -2.33218
H          8.67872       -9.43599       -0.56979
H          7.09654      -10.13832        1.38426
H          5.08940       -9.57947        2.76341
H          3.79788       -7.47279        2.32708
H          0.81903        4.96045       -4.56132
H          2.11132        2.85449       -4.12384
H         -1.18821        5.51941       -3.18235
H         -1.87939        1.08408        0.80748
H         -3.30576        3.13054        0.53562
H         -2.76999        4.81767       -1.22777
H          8.02550       -0.40341       -3.87702
H          4.88364       -1.27044       -6.65466
H          6.67140       -1.86809       -1.02260
C          6.11321        0.22541       -0.78881
H          7.84121       -0.67818       -1.63417
H          9.01296        0.11501       -7.41898
H          9.26839       -0.84792       -5.91800
H          8.70921        0.88441       -5.81867
H          1.01995       -3.35328        4.85760
H         -2.11803       -4.21505        2.07398
H         -0.75989       -2.74640       -0.77618
H         -1.93048       -3.93713       -0.16803
C         -0.20143       -4.83945       -1.01257
H         -3.11104       -4.73860        5.61353
H         -3.36380       -3.77300        4.11382
H         -2.80527       -5.50541        4.01237
H          0.87844       -4.67811       -1.18422
H         -0.69139       -4.91881       -2.00582
H         -0.33812       -5.80084       -0.47316
H          6.60443        0.30645        0.20369
H          5.03354        0.06430       -0.61556
H          6.24916        1.18593       -1.32996
H          2.80424       -2.05945       -6.00865
H          2.20960       -1.37377       -4.47375
H          2.83929       -3.06583       -4.52404
H          3.69732       -3.24703        2.68086
H          3.10047       -2.56378        4.21594
H          3.06785       -1.55497        2.73293
