140
 Final energy is   -3084.72312974069     
C        -0.1851041907    0.9545187038    0.3571072790
C        -0.2153320828    0.9155181812    1.7679898816
H         0.7223935457    0.8914940116    2.3144881912
C        -1.4105141745    0.8975536855    2.4489047494
C        -2.6355060241    0.9082316301    1.7177387708
C        -2.6315060736    0.9409376096    0.3477560920
H        -3.5748797230    0.9361062875   -0.1915250520
C        -1.4171961623    0.9761612525   -0.3682483879
C        -3.7396806068    0.8698289729    2.6685181391
C        -5.1085056733    0.8605708989    2.5645715270
H        -5.6080988601    0.8868042356    1.6035191112
C        -3.1563246338    0.8355142362    3.9495271216
C        -3.8876571305    0.7901952996    5.1328775568
C        -1.7472821255    0.8509997956    3.8716391570
C        -1.0397629327    0.8187677591    5.0465702684
H         0.0428553221    0.8276946936    5.0604325891
C        -5.8751959582    0.8161151659    3.7506944183
H        -6.9551396643    0.8090876445    3.6704626245
C        -5.2983151585    0.7812750945    5.0001624336
H        -5.9254107438    0.7473231394    5.8828604393
C        -1.7547091588    0.7722610689    6.2670727763
H        -1.1910784806    0.7469057713    7.1909717985
C        -3.1295940766    0.7579195120    6.3279097887
H        -3.6295127691    0.7218272384    7.2881223345
B        -1.4012933302    0.9845837155   -1.8955950867
C        -0.0755902410    1.0469188796   -2.6536049516
C        -0.0462494650    1.0945045550   -4.0626301291
H        -0.9749458191    1.1130135446   -4.6257771188
C         1.1445133526    1.1112817256   -4.7376960222
C         2.3816591856    1.0654891464   -4.0309507801
C         2.3732700034    1.0108093658   -2.6579539003
H         3.3111931818    0.9570975930   -2.1154172256
C         1.1584955061    1.0110366093   -1.9374339860
C         1.4309460381    1.1470856629   -6.1669711785
C         0.6714208464    1.1948400991   -7.3101276307
H        -0.4111995373    1.2227873377   -7.2753483477
C         2.8336179408    1.1175254177   -6.2878100912
C         3.5065519151    1.1302302091   -7.5076041330
C         3.4585302328    1.0690287254   -5.0233960892
C         4.8303409450    1.0333885308   -4.9883658094
H         5.3759525360    0.9978355353   -4.0534702993
C         1.3295219733    1.2098863144   -8.5610419827
H         0.7301926458    1.2485273656   -9.4622842278
C         2.7009393405    1.1782164076   -8.6721639643
H         3.1641318979    1.1906309160   -9.6514677989
C         5.5422929894    1.0453568345   -6.2116100691
H         6.6239956107    1.0174803749   -6.1761820792
C         4.9195934135    1.0916917197   -7.4380237236
H         5.5093599639    1.0988575124   -8.3467009816
B         1.1517301255    0.9192499241   -0.4009505952
C         2.5249075679    0.6904892879    0.3427372122
C         2.8875819322   -0.6079743096    0.7351453121
C         4.1540913781   -0.8520587024    1.2524185629
H         4.4398815161   -1.8626446634    1.5248796800
C         5.0712450964    0.1775337874    1.3960034512
C         4.7061416445    1.4703511265    1.0518906844
H         5.4224801185    2.2753171753    1.1750275192
C         3.4473713929    1.7320163571    0.5232501293
N         6.3954423666   -0.0928043430    1.8241404022
C         6.5972412922   -0.8156531343    3.0029538495
C         7.6282879381   -1.7501058154    3.1260167912
H         8.2988554425   -1.9314857147    2.2965055063
C         7.7911401206   -2.4638849175    4.3024659979
H         8.5957782087   -3.1850839433    4.3718965198
C         6.9269613359   -2.2818177845    5.3718849786
H         7.0529480596   -2.8487845903    6.2845452812
C         5.8936674658   -1.3626921211    5.2477945653
H         5.2068731502   -1.2040681573    6.0695585940
C         5.7313901329   -0.6304246321    4.0845685948
H         4.9234154715    0.0857889657    4.0084647857
C         7.4229205949    0.1138244892    0.8899635353
C         8.6788975832    0.5635067215    1.2984971257
H         8.8663894571    0.7492236456    2.3483442198
C         9.6814951195    0.7784527035    0.3673648851
H        10.6490825797    1.1291744461    0.7030678729
C         9.4486781621    0.5703458343   -0.9855368805
H        10.2317691281    0.7491931633   -1.7103415042
C         8.1965404656    0.1359582388   -1.3955020399
H         7.9973264668   -0.0345240847   -2.4462181543
C         7.1920749506   -0.0984421875   -0.4703586556
H         6.2226655821   -0.4454298599   -0.8052189570
C         1.9646829227   -1.7846459169    0.5243197330
H         0.9273030546   -1.4880703373    0.6895022171
H         2.1846081103   -2.5519581315    1.2713410146
C         3.0773108666    3.1523850602    0.1806290554
H         2.5071739290    3.1765662642   -0.7511878988
H         3.9851220824    3.7331611062   -0.0014128402
C         2.0920079252   -2.3950828189   -0.8711634606
H         1.8389652904   -1.6704317840   -1.6449074412
H         3.1092203484   -2.7418160081   -1.0595294989
H         1.4213318498   -3.2488805303   -0.9832119251
C         2.2587696701    3.8223202036    1.2821380030
H         1.3181160942    3.2968927591    1.4482690634
H         2.8055199946    3.8353010989    2.2260382914
H         2.0186619517    4.8531855025    1.0180336939
C        -2.7280223412    0.7813552786   -2.7398580628
C        -3.1907274329   -0.5419076491   -2.9742574788
C        -4.2771404343   -0.7656026299   -3.7822296125
H        -4.6410441834   -1.7761412036   -3.9203650176
C        -4.9490032536    0.3077886360   -4.4019961349
N        -5.9966596419    0.0602683392   -5.2412529738
C        -4.5134407363    1.6275228424   -4.1556560611
H        -4.9992031804    2.4552565003   -4.6574021672
C        -3.4302486648    1.8614276874   -3.3432902077
C        -6.1018399275   -1.1766317657   -5.9200269328
C        -7.3142664431   -1.8607673160   -5.9105269494
H        -8.1631705664   -1.4588331093   -5.3729840237
C        -7.4152805622   -3.0710956815   -6.5730273440
H        -8.3514844845   -3.6123010282   -6.5549960524
C        -6.3197632481   -3.5937059954   -7.2487118177
H        -6.4047190615   -4.5401385580   -7.7655142928
C        -5.1172657463   -2.9002404218   -7.2647812752
H        -4.2664310969   -3.2976787685   -7.8010814737
C        -5.0018533100   -1.6888612197   -6.6043664939
H        -4.0709041265   -1.1371989811   -6.6314343172
C        -7.0149635024    1.0130695821   -5.4649185603
C        -7.4523024213    1.2513090592   -6.7659992968
H        -6.9917329222    0.7358916937   -7.5987592923
C        -8.4665539585    2.1655306803   -6.9841795602
H        -8.7994020038    2.3616045595   -7.9943274037
C        -9.0500821316    2.8327729048   -5.9143605542
H        -9.8454888429    3.5443590484   -6.0902398058
C        -8.6178640982    2.5816032324   -4.6192106687
H        -9.0818974958    3.0869676153   -3.7832888527
C        -7.6024191633    1.6701764859   -4.3862894873
H        -7.2833894277    1.4514854331   -3.3753890650
C        -2.4816425872   -1.7375214077   -2.3980252915
H        -1.9193509968   -1.4533489937   -1.5090146153
H        -3.2214047136   -2.4755340419   -2.0764128694
C        -2.9990076641    3.2797619243   -3.1007555292
H        -1.9135315361    3.3270784405   -2.9983633870
H        -3.2594981284    3.8929480342   -3.9667685242
C        -1.5397892581   -2.3727908898   -3.4200678062
H        -0.7849622601   -1.6617114071   -3.7550652354
H        -1.0211371870   -3.2258448786   -2.9828102410
H        -2.0862530670   -2.7257408777   -4.2966052228
C        -3.6582086088    3.8568885538   -1.8498266187
H        -3.3825787864    3.2890435671   -0.9617468717
H        -3.3437297643    4.8882767022   -1.6926122852
H        -4.7457965591    3.8453486645   -1.9374705442
