140
 Final energy is   -3084.69669875907     
C        -0.2032754968    0.9444774347    0.3955871482
C        -0.2176413621    0.8947990173    1.8052691427
H         0.7273975044    0.8653330415    2.3384170352
C        -1.4050469631    0.8721042187    2.4993993304
C        -2.6371565049    0.8895623455    1.7825696682
C        -2.6488546164    0.9344851168    0.4138812142
H        -3.5993121724    0.9366541386   -0.1136660625
C        -1.4419385199    0.9735053995   -0.3154779944
C        -3.7309447727    0.8432837359    2.7455532315
C        -5.0998355490    0.8348252414    2.6570256985
H        -5.6098958686    0.8692369325    1.7017874499
C        -3.1336240246    0.7979467662    4.0189366150
C        -3.8513112604    0.7428610050    5.2094299301
C        -1.7259659525    0.8135965679    3.9249637092
C        -1.0061233940    0.7712796335    5.0909270278
H         0.0764223150    0.7795010868    5.0922789678
C        -5.8534769419    0.7805174103    3.8504038779
H        -6.9341910187    0.7741466179    3.7824772888
C        -5.2625404081    0.7352840606    5.0920238428
H        -5.8798214386    0.6939328623    5.9811888703
C        -1.7068135118    0.7150305230    6.3187680093
H        -1.1328926774    0.6817483548    7.2359097918
C        -3.0799842723    0.7005555053    6.3949544462
H        -3.5688290533    0.6566373665    7.3603937997
B        -1.4368330224    0.9965789558   -1.8411044658
C        -0.1234018994    1.0565673828   -2.6175134129
C        -0.1061247387    1.1050756356   -4.0277349717
H        -1.0383805752    1.1291477414   -4.5854118740
C         1.0777044849    1.1163937239   -4.7124805992
C         2.3204701548    1.0666646761   -4.0178019075
C         2.3237559831    1.0100166909   -2.6447827484
H         3.2650116164    0.9525671007   -2.1087391043
C         1.1166086337    1.0117503612   -1.9137775405
C         1.3508070656    1.1508154916   -6.1446182638
C         0.5815265814    1.2010818083   -7.2800965471
H        -0.5005572179    1.2347766949   -7.2345691923
C         2.7514483340    1.1162430573   -6.2784547259
C         3.4128690540    1.1261874843   -7.5039492595
C         3.3872943995    1.0673457807   -5.0198466847
C         4.7586307732    1.0297279263   -4.9977436844
H         5.3124089928    0.9954016649   -4.0677756752
C         1.2271580624    1.2128678287   -8.5367807780
H         0.6200745281    1.2538773153   -9.4326745449
C         2.5966696234    1.1758666626   -8.6601361906
H         3.0505907292    1.1862882772   -9.6437145967
C         5.4591975756    1.0389460138   -6.2268943791
H         6.5410248971    1.0096006553   -6.2014058716
C         4.8258472142    1.0845323430   -7.4469559697
H         5.4075278462    1.0896264416   -8.3606990907
B         1.1258390068    0.9131520616   -0.3774215379
C         2.5066064185    0.6859909408    0.3496322188
C         2.8773191001   -0.6126008118    0.7319133903
C         4.1493712591   -0.8540485016    1.2349663555
H         4.4424673554   -1.8637325065    1.5024383216
C         5.0643095443    0.1779469524    1.3722379349
C         4.6916477974    1.4704844903    1.0361396001
H         5.4079235012    2.2760025130    1.1537290225
C         3.4269189883    1.7302399735    0.5227277241
N         6.3930737286   -0.0901315526    1.7858775174
C         6.6076984202   -0.8076037446    2.9655201200
C         7.6456283833   -1.7341457804    3.0853173118
H         8.3117541434   -1.9125596510    2.2517470149
C         7.8199047693   -2.4427699196    4.2624789801
H         8.6299196363   -3.1579542527    4.3296354569
C         6.9607254443   -2.2641390449    5.3355249530
H         7.0958143514   -2.8275000583    6.2489133615
C         5.9207440235   -1.3533144025    5.2144877141
H         5.2373991308   -1.1977404226    6.0395312040
C         5.7466590641   -0.6257853660    4.0509056985
H         4.9331480538    0.0838550973    3.9751471595
C         7.4098333390    0.1211166871    0.8423672828
C         8.6703037988    0.5688283034    1.2379588524
H         8.8682304613    0.7494792839    2.2865659521
C         9.6616809551    0.7870646112    0.2965494883
H        10.6330768551    1.1362659970    0.6223245424
C         9.4138020075    0.5842047986   -1.0537403173
H        10.1886524775    0.7653030973   -1.7865567030
C         8.1575124975    0.1517368779   -1.4507377933
H         7.9471648359   -0.0157104803   -2.4997079612
C         7.1637490039   -0.0854446992   -0.5159868692
H         6.1899543962   -0.4308780683   -0.8390490616
C         1.9571646917   -1.7909753735    0.5205589302
H         0.9186385832   -1.4964910423    0.6826350265
H         2.1753933742   -2.5570348284    1.2693779781
C         3.0477343575    3.1496589829    0.1866477146
H         2.4755853358    3.1744257302   -0.7440655507
H         3.9519574088    3.7356454292    0.0033058830
C         2.0926914511   -2.4008124265   -0.8742290571
H         1.8505222335   -1.6737501066   -1.6490532956
H         3.1097474888   -2.7514208899   -1.0550893054
H         1.4201425377   -3.2523683260   -0.9933733942
C         2.2293199519    3.8117331769    1.2927407410
H         1.2895143484    3.2846914669    1.4575257664
H         2.7771537776    3.8200755090    2.2358416127
H         1.9875344035    4.8438743020    1.0352810195
C        -2.7635602321    0.7967379495   -2.6802418215
C        -3.2455275672   -0.5274458526   -2.9025353002
C        -4.3021048165   -0.7477954993   -3.7455669510
H        -4.6712418506   -1.7559230665   -3.8860564485
C        -4.9365691557    0.3242127922   -4.4094640539
N        -5.9443718492    0.0751689708   -5.2923177548
C        -4.4995706552    1.6450072542   -4.1587661947
H        -4.9622356194    2.4702936476   -4.6852872991
C        -3.4436509305    1.8797091811   -3.3158770840
C        -6.0441558898   -1.1784524552   -5.9451872797
C        -7.2640947042   -1.8463779508   -5.9635356107
H        -8.1259088264   -1.4170358083   -5.4695801963
C        -7.3607907387   -3.0698599045   -6.6026168247
H        -8.3056022407   -3.5961106966   -6.6070865660
C        -6.2509741526   -3.6245282179   -7.2253471841
H        -6.3314265180   -4.5817598537   -7.7223229508
C        -5.0394054376   -2.9486615411   -7.2132178037
H        -4.1749690482   -3.3713916726   -7.7066634935
C        -4.9305705325   -1.7226933161   -6.5787965729
H        -3.9897814743   -1.1872399370   -6.5802520891
C        -6.9308083473    1.0423530973   -5.5968910972
C        -7.2758893189    1.2726791418   -6.9252388669
H        -6.7695127902    0.7371306086   -7.7177113757
C        -8.2613777688    2.1966802567   -7.2222448850
H        -8.5235115925    2.3836534446   -8.2546634905
C        -8.9058912167    2.8847998494   -6.2030829208
H        -9.6770437609    3.6051114426   -6.4399877555
C        -8.5649495778    2.6431279703   -4.8801823251
H        -9.0750568081    3.1662624784   -4.0829648508
C        -7.5817828510    1.7190925430   -4.5698007915
H        -7.3310979293    1.5106535392   -3.5377171645
C        -2.5762338356   -1.7189473113   -2.2764441785
H        -2.0851856223   -1.4313410894   -1.3477471280
H        -3.3348618666   -2.4613968618   -2.0143209453
C        -2.9980762902    3.2924275676   -3.0755336071
H        -1.9089150879    3.3308826300   -3.0176980170
H        -3.2915076682    3.9166118742   -3.9231335007
C        -1.5566245738   -2.3443886265   -3.2286881834
H        -0.7893931105   -1.6251071897   -3.5126591580
H        -1.0589104108   -3.1891229452   -2.7530767055
H        -2.0362781667   -2.7066677705   -4.1400068674
C        -3.6004509362    3.8569907162   -1.7901978012
H        -3.2833652713    3.2840527921   -0.9197518975
H        -3.2787740695    4.8870363164   -1.6402213474
H        -4.6908007167    3.8467833801   -1.8278516234
