  140
FINAL HEAT OF FORMATION = -3084.719011
 C    -0.185278     0.923522     0.360977
 C    -0.207478     0.884304     1.771714
 H     0.733514     0.856187     2.312270
 C    -1.398767     0.871908     2.459654
 C    -2.627753     0.889519     1.735845
 C    -2.631658     0.921767     0.365993
 H    -3.578349     0.922089    -0.167639
 C    -1.421356     0.949529    -0.357235
 C    -3.726552     0.857621     2.693219
 C    -5.095833     0.856547     2.597507
 H    -5.600982     0.885965     1.639452
 C    -3.135871     0.819748     3.970624
 C    -3.860327     0.778566     5.158194
 C    -1.727290     0.827037     3.884238
 C    -1.013132     0.790557     5.054830
 H     0.069559     0.793189     5.062157
 C    -5.855744     0.816443     3.788016
 H    -6.936167     0.815836     3.714263
 C    -5.271620     0.777962     5.033847
 H    -5.893678     0.747514     5.920219
 C    -1.720988     0.748074     6.279524
 H    -1.152017     0.719311     7.200028
 C    -3.095375     0.741744     6.348582
 H    -3.589694     0.708508     7.311774
 B    -1.413392     0.955936    -1.884271
 C    -0.092563     1.011390    -2.650871
 C    -0.070242     1.055687    -4.060252
 H    -1.001388     1.073672    -4.619418
 C     1.116862     1.071150    -4.741218
 C     2.357693     1.028942    -4.041108
 C     2.356239     0.977262    -2.667908
 H     3.296631     0.926561    -2.129419
 C     1.145321     0.976733    -1.941362
 C     1.395461     1.104619    -6.172140
 C     0.629814     1.149213    -7.311166
 H    -0.452651     1.175523    -7.270447
 C     2.797363     1.077610    -6.300517
 C     3.463671     1.090114    -7.523855
 C     3.429024     1.033028    -5.039342
 C     4.800978     1.001540    -5.011829
 H     5.351619     0.969529    -4.079821
 C     1.280964     1.163612    -8.565579
 H     0.676815     1.199780    -9.463709
 C     2.651709     1.134567    -8.683974
 H     3.109583     1.146583    -9.665777
 C     5.506331     1.013303    -6.238775
 H     6.588270     0.988618    -6.209110
 C     4.877073     1.055577    -7.461801
 H     5.461976     1.062845    -8.373598
 B     1.147474     0.887850    -0.404784
 C     2.525484     0.669226     0.332836
 C     2.901444    -0.626294     0.721145
 C     4.169608    -0.859075     1.239174
 H     4.465327    -1.867380     1.509340
 C     5.075125     0.179846     1.389247
 C     4.697201     1.469705     1.047018
 H     5.404581     2.281929     1.174319
 C     3.437254     1.719562     0.515873
 N     6.398940    -0.077108     1.825151
 C     6.602682    -0.805313     3.000224
 C     7.647227    -1.724556     3.123565
 H     8.326846    -1.888218     2.297685
 C     7.812092    -2.445614     4.295081
 H     8.627413    -3.154647     4.364922
 C     6.936681    -2.286393     5.358934
 H     7.064287    -2.859222     6.267671
 C     5.890175    -1.382679     5.234354
 H     5.194447    -1.242056     6.051850
 C     5.725607    -0.642977     4.076273
 H     4.906723     0.060624     3.999361
 C     7.434119     0.167625     0.909579
 C     8.674623     0.636626     1.342546
 H     8.843894     0.808692     2.397788
 C     9.684661     0.888374     0.428913
 H    10.639925     1.253807     0.783639
 C     9.474421     0.698406    -0.930151
 H    10.262959     0.906074    -1.641184
 C     8.237488     0.244374    -1.364181
 H     8.056174     0.087436    -2.420194
 C     7.226304    -0.027142    -0.457016
 H     6.269133    -0.389578    -0.810124
 C     1.990549    -1.810833     0.504257
 H     0.948687    -1.521090     0.653287
 H     2.205070    -2.572905     1.258250
 C     3.053378     3.136335     0.174023
 H     2.475569     3.154174    -0.753255
 H     3.955012     3.723921    -0.016867
 C     2.143722    -2.425797    -0.886570
 H     1.902898    -1.703683    -1.666519
 H     3.164986    -2.770390    -1.055985
 H     1.477554    -3.281783    -1.008383
 C     2.238571     3.801906     1.280844
 H     1.303777     3.269055     1.455832
 H     2.793026     3.821528     2.220093
 H     1.987683     4.830171     1.016595
 C    -2.745260     0.765750    -2.723011
 C    -3.231192    -0.551107    -2.952179
 C    -4.310715    -0.760317    -3.772186
 H    -4.689151    -1.765395    -3.910959
 C    -4.957352     0.320991    -4.405699
 N    -5.994251     0.085749    -5.260934
 C    -4.506741     1.635298    -4.155582
 H    -4.975875     2.468766    -4.663611
 C    -3.428399     1.855275    -3.333549
 C    -6.106004    -1.152273    -5.937310
 C    -7.327483    -1.819827    -5.945274
 H    -8.179721    -1.403522    -5.424172
 C    -7.434456    -3.031082    -6.605223
 H    -8.378328    -3.559092    -6.600942
 C    -6.335462    -3.571523    -7.260619
 H    -6.424988    -4.518755    -7.775146
 C    -5.123553    -2.894755    -7.259282
 H    -4.269357    -3.306105    -7.779495
 C    -5.002512    -1.682322    -6.601780
 H    -4.063428    -1.144098    -6.614815
 C    -6.994741     1.052586    -5.505742
 C    -7.403049     1.295652    -6.815033
 H    -6.933129     0.772760    -7.637847
 C    -8.401001     2.222618    -7.053921
 H    -8.711432     2.421883    -8.070557
 C    -8.996799     2.898304    -5.996425
 H    -9.779169     3.620079    -6.188377
 C    -8.593422     2.642702    -4.693038
 H    -9.066899     3.155119    -3.866759
 C    -7.594874     1.718118    -4.439614
 H    -7.297930     1.496601    -3.422615
 C    -2.552482    -1.754429    -2.356828
 H    -2.018088    -1.477498    -1.448714
 H    -3.309789    -2.486080    -2.062775
 C    -2.979551     3.267301    -3.088022
 H    -1.894286     3.300024    -2.979005
 H    -3.226632     3.884738    -3.954919
 C    -1.584136    -2.395880    -3.350079
 H    -0.813130    -1.691204    -3.660543
 H    -1.086503    -3.254111    -2.898776
 H    -2.106592    -2.742378    -4.243733
 C    -3.638128     3.850658    -1.839505
 H    -3.372584     3.278819    -0.950902
 H    -3.312369     4.878078    -1.679635
 H    -4.725389     3.851858    -1.931763
