140
 Final energy is   -3084.69669875907     
C        -0.2032754968    0.9444774347    0.3955871482
C        -0.2176413621    0.8947990173    1.8052691427
H         0.7273975044    0.8653330415    2.3384170352
C        -1.4050469631    0.8721042187    2.4993993304
C        -2.6371565049    0.8895623455    1.7825696682
C        -2.6488546164    0.9344851168    0.4138812142
H        -3.5993121724    0.9366541386   -0.1136660625
C        -1.4419385199    0.9735053995   -0.3154779944
C        -3.7309447727    0.8432837359    2.7455532315
C        -5.0998355490    0.8348252414    2.6570256985
H        -5.6098958686    0.8692369325    1.7017874499
C        -3.1336240246    0.7979467662    4.0189366150
C        -3.8513112604    0.7428610050    5.2094299301
C        -1.7259659525    0.8135965679    3.9249637092
C        -1.0061233940    0.7712796335    5.0909270278
H         0.0764223150    0.7795010868    5.0922789678
C        -5.8534769419    0.7805174103    3.8504038779
H        -6.9341910187    0.7741466179    3.7824772888
C        -5.2625404081    0.7352840606    5.0920238428
H        -5.8798214386    0.6939328623    5.9811888703
C        -1.7068135118    0.7150305230    6.3187680093
H        -1.1328926774    0.6817483548    7.2359097918
C        -3.0799842723    0.7005555053    6.3949544462
H        -3.5688290533    0.6566373665    7.3603937997
B        -1.4368330224    0.9965789558   -1.8411044658
C        -0.1234018994    1.0565673828   -2.6175134129
C        -0.1061247387    1.1050756356   -4.0277349717
H        -1.0383805752    1.1291477414   -4.5854118740
C         1.0777044849    1.1163937239   -4.7124805992
C         2.3204701548    1.0666646761   -4.0178019075
C         2.3237559831    1.0100166909   -2.6447827484
H         3.2650116164    0.9525671007   -2.1087391043
C         1.1166086337    1.0117503612   -1.9137775405
C         1.3508070656    1.1508154916   -6.1446182638
C         0.5815265814    1.2010818083   -7.2800965471
H        -0.5005572179    1.2347766949   -7.2345691923
C         2.7514483340    1.1162430573   -6.2784547259
C         3.4128690540    1.1261874843   -7.5039492595
C         3.3872943995    1.0673457807   -5.0198466847
C         4.7586307732    1.0297279263   -4.9977436844
H         5.3124089928    0.9954016649   -4.0677756752
C         1.2271580624    1.2128678287   -8.5367807780
H         0.6200745281    1.2538773153   -9.4326745449
C         2.5966696234    1.1758666626   -8.6601361906
H         3.0505907292    1.1862882772   -9.6437145967
C         5.4591975756    1.0389460138   -6.2268943791
H         6.5410248971    1.0096006553   -6.2014058716
C         4.8258472142    1.0845323430   -7.4469559697
H         5.4075278462    1.0896264416   -8.3606990907
B         1.1258390068    0.9131520616   -0.3774215379
C         2.5066064185    0.6859909408    0.3496322188
C         2.8773191001   -0.6126008118    0.7319133903
C         4.1493712591   -0.8540485016    1.2349663555
H         4.4424673554   -1.8637325065    1.5024383216
C         5.0643095443    0.1779469524    1.3722379349
C         4.6916477974    1.4704844903    1.0361396001
H         5.4079235012    2.2760025130    1.1537290225
C         3.4269189883    1.7302399735    0.5227277241
N         6.3930737286   -0.0901315526    1.7858775174
C         6.6076984202   -0.8076037446    2.9655201200
C         7.6456283833   -1.7341457804    3.0853173118
H         8.3117541434   -1.9125596510    2.2517470149
C         7.8199047693   -2.4427699196    4.2624789801
H         8.6299196363   -3.1579542527    4.3296354569
C         6.9607254443   -2.2641390449    5.3355249530
H         7.0958143514   -2.8275000583    6.2489133615
C         5.9207440235   -1.3533144025    5.2144877141
H         5.2373991308   -1.1977404226    6.0395312040
C         5.7466590641   -0.6257853660    4.0509056985
H         4.9331480538    0.0838550973    3.9751471595
C         7.4098333390    0.1211166871    0.8423672828
C         8.6703037988    0.5688283034    1.2379588524
H         8.8682304613    0.7494792839    2.2865659521
C         9.6616809551    0.7870646112    0.2965494883
H        10.6330768551    1.1362659970    0.6223245424
C         9.4138020075    0.5842047986   -1.0537403173
H        10.1886524775    0.7653030973   -1.7865567030
C         8.1575124975    0.1517368779   -1.4507377933
H         7.9471648359   -0.0157104803   -2.4997079612
C         7.1637490039   -0.0854446992   -0.5159868692
H         6.1899543962   -0.4308780683   -0.8390490616
C         1.9571646917   -1.7909753735    0.5205589302
H         0.9186385832   -1.4964910423    0.6826350265
H         2.1753933742   -2.5570348284    1.2693779781
C         3.0477343575    3.1496589829    0.1866477146
H         2.4755853358    3.1744257302   -0.7440655507
H         3.9519574088    3.7356454292    0.0033058830
C         2.0926914511   -2.4008124265   -0.8742290571
H         1.8505222335   -1.6737501066   -1.6490532956
H         3.1097474888   -2.7514208899   -1.0550893054
H         1.4201425377   -3.2523683260   -0.9933733942
C         2.2293199519    3.8117331769    1.2927407410
H         1.2895143484    3.2846914669    1.4575257664
H         2.7771537776    3.8200755090    2.2358416127
H         1.9875344035    4.8438743020    1.0352810195
C        -2.7635602321    0.7967379495   -2.6802418215
C        -3.2455275672   -0.5274458526   -2.9025353002
C        -4.3021048165   -0.7477954993   -3.7455669510
H        -4.6712418506   -1.7559230665   -3.8860564485
C        -4.9365691557    0.3242127922   -4.4094640539
N        -5.9443718492    0.0751689708   -5.2923177548
C        -4.4995706552    1.6450072542   -4.1587661947
H        -4.9622356194    2.4702936476   -4.6852872991
C        -3.4436509305    1.8797091811   -3.3158770840
C        -6.0441558898   -1.1784524552   -5.9451872797
C        -7.2640947042   -1.8463779508   -5.9635356107
H        -8.1259088264   -1.4170358083   -5.4695801963
C        -7.3607907387   -3.0698599045   -6.6026168247
H        -8.3056022407   -3.5961106966   -6.6070865660
C        -6.2509741526   -3.6245282179   -7.2253471841
H        -6.3314265180   -4.5817598537   -7.7223229508
C        -5.0394054376   -2.9486615411   -7.2132178037
H        -4.1749690482   -3.3713916726   -7.7066634935
C        -4.9305705325   -1.7226933161   -6.5787965729
H        -3.9897814743   -1.1872399370   -6.5802520891
C        -6.9308083473    1.0423530973   -5.5968910972
C        -7.2758893189    1.2726791418   -6.9252388669
H        -6.7695127902    0.7371306086   -7.7177113757
C        -8.2613777688    2.1966802567   -7.2222448850
H        -8.5235115925    2.3836534446   -8.2546634905
C        -8.9058912167    2.8847998494   -6.2030829208
H        -9.6770437609    3.6051114426   -6.4399877555
C        -8.5649495778    2.6431279703   -4.8801823251
H        -9.0750568081    3.1662624784   -4.0829648508
C        -7.5817828510    1.7190925430   -4.5698007915
H        -7.3310979293    1.5106535392   -3.5377171645
C        -2.5762338356   -1.7189473113   -2.2764441785
H        -2.0851856223   -1.4313410894   -1.3477471280
H        -3.3348618666   -2.4613968618   -2.0143209453
C        -2.9980762902    3.2924275676   -3.0755336071
H        -1.9089150879    3.3308826300   -3.0176980170
H        -3.2915076682    3.9166118742   -3.9231335007
C        -1.5566245738   -2.3443886265   -3.2286881834
H        -0.7893931105   -1.6251071897   -3.5126591580
H        -1.0589104108   -3.1891229452   -2.7530767055
H        -2.0362781667   -2.7066677705   -4.1400068674
C        -3.6004509362    3.8569907162   -1.7901978012
H        -3.2833652713    3.2840527921   -0.9197518975
H        -3.2787740695    4.8870363164   -1.6402213474
H        -4.6908007167    3.8467833801   -1.8278516234
140
 Final energy is   -3084.71877575944     
C        -0.1891215297    0.9506779050    0.3670808099
C        -0.2158241934    0.9106645245    1.7777900843
H         0.7234642241    0.8865236425    2.3215317019
C        -1.4092892269    0.8917314152    2.4616502999
C        -2.6359350213    0.9023457182    1.7336389361
C        -2.6353768104    0.9362432450    0.3638428677
H        -3.5802116460    0.9315046309   -0.1730081662
C        -1.4227816299    0.9724186255   -0.3551822276
C        -3.7377442113    0.8625690354    2.6872231376
C        -5.1066583552    0.8525440984    2.5868262371
H        -5.6086804553    0.8791367145    1.6270530736
C        -3.1512044742    0.8277073677    3.9666332754
C        -3.8794306082    0.7812541726    5.1517121104
C        -1.7424436023    0.8440203207    3.8850991754
C        -1.0320457826    0.8114876996    5.0580935491
H         0.0505732058    0.8210061457    5.0691014757
C        -5.8703543248    0.8068760336    3.7747147478
H        -6.9504931020    0.7992553209    3.6972697895
C        -5.2902719699    0.7716075882    5.0225302964
H        -5.9151292789    0.7367310452    5.9067663091
C        -1.7437670947    0.7638854333    6.2803447731
H        -1.1777701546    0.7383220235    7.2027740728
C        -3.1183223937    0.7487198810    6.3446873026
H        -3.6157156659    0.7118014259    7.3061622226
B        -1.4096335239    0.9821990961   -1.8821780723
C        -0.0864976657    1.0436640581   -2.6442309891
C        -0.0599542483    1.0901699729   -4.0534686459
H        -0.9895858014    1.1083900246   -4.6151733449
C         1.1292332402    1.1065478116   -4.7308669625
C         2.3677820275    1.0622103381   -4.0268355494
C         2.3621687610    1.0083338384   -2.6538071584
H         3.3010223458    0.9554936671   -2.1128573114
C         1.1490746372    1.0081263855   -1.9308486092
C         1.4125544739    1.1414619426   -6.1608119280
C         0.6506954658    1.1880553803   -7.3022978948
H        -0.4318644278    1.2156004878   -7.2651052621
C         2.8148740140    1.1129764589   -6.2846502240
C         3.4851711072    1.1257818957   -7.5057878512
C         3.4423987190    1.0662071264   -5.0215187752
C         4.8142187686    1.0328149720   -4.9894311292
H         5.3617751680    0.9992715527   -4.0556216126
C         1.3059637038    1.2029078578   -8.5545683780
H         0.7047786269    1.2407174805   -9.4546156447
C         2.6770506476    1.1723188752   -8.6685166132
H         3.1381181684    1.1847221218   -9.6488164980
C         5.5235537434    1.0448935362   -6.2140799514
H         6.6053629739    1.0188626177   -6.1809083164
C         4.8983158296    1.0892557545   -7.4391146077
H         5.4862136270    1.0966833641   -8.3489820427
B         1.1459415659    0.9164710427   -0.3943445513
C         2.5212151397    0.6896714788    0.3456738696
C         2.8869466218   -0.6084820249    0.7357991219
C         4.1550201025   -0.8508553396    1.2497381452
H         4.4433543967   -1.8610169245    1.5210335034
C         5.0707892708    0.1801193331    1.3916377415
C         4.7028647781    1.4725293255    1.0492609657
H         5.4186032898    2.2782292457    1.1707504249
C         3.4423356639    1.7326157161    0.5242729034
N         6.3965562081   -0.0886157805    1.8160081507
C         6.6020579404   -0.8100297789    2.9950126945
C         7.6346917800   -1.7427721947    3.1170169494
H         8.3037484983   -1.9239183174    2.2862620846
C         7.8007910320   -2.4551012281    4.2937713767
H         8.6066156868   -3.1750355514    4.3623526007
C         6.9384475328   -2.2733994401    5.3645595245
H         7.0670101732   -2.8393159989    6.2774865957
C         5.9036132181   -1.3560501267    5.2415084222
H         5.2180747621   -1.1978015550    6.0643690496
C         5.7379915568   -0.6251968374    4.0780328059
H         4.9287223580    0.0895435156    4.0023629943
C         7.4206576878    0.1173564716    0.8782135327
C         8.6782062185    0.5668428069    1.2819555418
H         8.8692158799    0.7528120556    2.3310920684
C         9.6773988366    0.7810943751    0.3471765807
H        10.6462827815    1.1316853243    0.6792120840
C         9.4397185110    0.5724608455   -1.0046810069
H        10.2202567630    0.7506828910   -1.7323570746
C         8.1860530278    0.1383536940   -1.4098762848
H         7.9831163325   -0.0326752068   -2.4597873239
C         7.1848484804   -0.0951960650   -0.4811855006
H         6.2139726713   -0.4417833754   -0.8121033688
C         1.9657994222   -1.7864102472    0.5248380956
H         0.9277552255   -1.4910602489    0.6880868327
H         2.1853113892   -2.5527954496    1.2729483957
C         3.0689389178    3.1523580213    0.1828216847
H         2.4972376058    3.1757850422   -0.7480856030
H         3.9753476004    3.7348375118   -0.0008243312
C         2.0967745098   -2.3973299438   -0.8700791443
H         1.8458773991   -1.6727917960   -1.6446034119
H         3.1145035252   -2.7439254697   -1.0557662222
H         1.4266222677   -3.2513495548   -0.9838089337
C         2.2511617271    3.8204988426    1.2859464602
H         1.3114075472    3.2938924173    1.4532066482
H         2.7993116520    3.8336002191    2.2290028812
H         2.0093093180    4.8512218128    1.0228735086
C        -2.7369201697    0.7810737929   -2.7253792266
C        -3.2043938316   -0.5415708785   -2.9588883039
C        -4.2843858979   -0.7627467163   -3.7752376688
H        -4.6500589040   -1.7723580758   -3.9152097678
C        -4.9472515349    0.3117140815   -4.4037027334
N        -5.9852702974    0.0657165301   -5.2542445327
C        -4.5109727593    1.6310794445   -4.1538105471
H        -4.9911283679    2.4595093588   -4.6597193315
C        -3.4336836250    1.8630682602   -3.3339310517
C        -6.0886523332   -1.1736435968   -5.9297439026
C        -7.3036121911   -1.8528854530   -5.9302939671
H        -8.1564351544   -1.4449024757   -5.4036280911
C        -7.4031156819   -3.0650732247   -6.5897209934
H        -8.3418261283   -3.6021167997   -6.5795919219
C        -6.3030976040   -3.5947744616   -7.2521078003
H        -6.3866191146   -4.5427574264   -7.7662526619
C        -5.0978112205   -2.9062962868   -7.2582438475
H        -4.2429989116   -3.3093168809   -7.7839452622
C        -4.9842791202   -1.6928270262   -6.6012647482
H        -4.0505254813   -1.1455595774   -6.6200825320
C        -6.9960879838    1.0229218348   -5.4955554117
C        -7.4106199866    1.2626093335   -6.8034664331
H        -6.9386643311    0.7441872471   -7.6279480708
C        -8.4175621757    2.1807264782   -7.0389429475
H        -8.7329020007    2.3775402548   -8.0545455997
C        -9.0160841903    2.8507336779   -5.9793898496
H        -9.8053939030    3.5656278635   -6.1686819598
C        -8.6066209899    2.5981223636   -4.6773256616
H        -9.0821861743    3.1059314772   -3.8493991022
C        -7.5991002925    1.6823454007   -4.4273215623
H        -7.2972423412    1.4630162887   -3.4112866352
C        -2.5050043490   -1.7379851458   -2.3731673560
H        -1.9543448218   -1.4542956072   -1.4768906539
H        -3.2503973686   -2.4746358246   -2.0615076608
C        -2.9993826938    3.2797731097   -3.0889727455
H        -1.9133075072    3.3247804205   -2.9921678490
H        -3.2636176154    3.8963332249   -3.9514626684
C        -1.5510110150   -2.3746031745   -3.3832240824
H        -0.7917542232   -1.6644138100   -3.7098019960
H        -1.0380827900   -3.2274504776   -2.9389526942
H        -2.0871476373   -2.7280622126   -4.2659698257
C        -3.6508494339    3.8531182464   -1.8321848170
H        -3.3697460715    3.2829069829   -0.9473997414
H        -3.3348361279    4.8838421002   -1.6739725843
H        -4.7389548011    3.8424711967   -1.9131401639
140
 Final energy is   -3084.72312974069     
C        -0.1851041907    0.9545187038    0.3571072790
C        -0.2153320828    0.9155181812    1.7679898816
H         0.7223935457    0.8914940116    2.3144881912
C        -1.4105141745    0.8975536855    2.4489047494
C        -2.6355060241    0.9082316301    1.7177387708
C        -2.6315060736    0.9409376096    0.3477560920
H        -3.5748797230    0.9361062875   -0.1915250520
C        -1.4171961623    0.9761612525   -0.3682483879
C        -3.7396806068    0.8698289729    2.6685181391
C        -5.1085056733    0.8605708989    2.5645715270
H        -5.6080988601    0.8868042356    1.6035191112
C        -3.1563246338    0.8355142362    3.9495271216
C        -3.8876571305    0.7901952996    5.1328775568
C        -1.7472821255    0.8509997956    3.8716391570
C        -1.0397629327    0.8187677591    5.0465702684
H         0.0428553221    0.8276946936    5.0604325891
C        -5.8751959582    0.8161151659    3.7506944183
H        -6.9551396643    0.8090876445    3.6704626245
C        -5.2983151585    0.7812750945    5.0001624336
H        -5.9254107438    0.7473231394    5.8828604393
C        -1.7547091588    0.7722610689    6.2670727763
H        -1.1910784806    0.7469057713    7.1909717985
C        -3.1295940766    0.7579195120    6.3279097887
H        -3.6295127691    0.7218272384    7.2881223345
B        -1.4012933302    0.9845837155   -1.8955950867
C        -0.0755902410    1.0469188796   -2.6536049516
C        -0.0462494650    1.0945045550   -4.0626301291
H        -0.9749458191    1.1130135446   -4.6257771188
C         1.1445133526    1.1112817256   -4.7376960222
C         2.3816591856    1.0654891464   -4.0309507801
C         2.3732700034    1.0108093658   -2.6579539003
H         3.3111931818    0.9570975930   -2.1154172256
C         1.1584955061    1.0110366093   -1.9374339860
C         1.4309460381    1.1470856629   -6.1669711785
C         0.6714208464    1.1948400991   -7.3101276307
H        -0.4111995373    1.2227873377   -7.2753483477
C         2.8336179408    1.1175254177   -6.2878100912
C         3.5065519151    1.1302302091   -7.5076041330
C         3.4585302328    1.0690287254   -5.0233960892
C         4.8303409450    1.0333885308   -4.9883658094
H         5.3759525360    0.9978355353   -4.0534702993
C         1.3295219733    1.2098863144   -8.5610419827
H         0.7301926458    1.2485273656   -9.4622842278
C         2.7009393405    1.1782164076   -8.6721639643
H         3.1641318979    1.1906309160   -9.6514677989
C         5.5422929894    1.0453568345   -6.2116100691
H         6.6239956107    1.0174803749   -6.1761820792
C         4.9195934135    1.0916917197   -7.4380237236
H         5.5093599639    1.0988575124   -8.3467009816
B         1.1517301255    0.9192499241   -0.4009505952
C         2.5249075679    0.6904892879    0.3427372122
C         2.8875819322   -0.6079743096    0.7351453121
C         4.1540913781   -0.8520587024    1.2524185629
H         4.4398815161   -1.8626446634    1.5248796800
C         5.0712450964    0.1775337874    1.3960034512
C         4.7061416445    1.4703511265    1.0518906844
H         5.4224801185    2.2753171753    1.1750275192
C         3.4473713929    1.7320163571    0.5232501293
N         6.3954423666   -0.0928043430    1.8241404022
C         6.5972412922   -0.8156531343    3.0029538495
C         7.6282879381   -1.7501058154    3.1260167912
H         8.2988554425   -1.9314857147    2.2965055063
C         7.7911401206   -2.4638849175    4.3024659979
H         8.5957782087   -3.1850839433    4.3718965198
C         6.9269613359   -2.2818177845    5.3718849786
H         7.0529480596   -2.8487845903    6.2845452812
C         5.8936674658   -1.3626921211    5.2477945653
H         5.2068731502   -1.2040681573    6.0695585940
C         5.7313901329   -0.6304246321    4.0845685948
H         4.9234154715    0.0857889657    4.0084647857
C         7.4229205949    0.1138244892    0.8899635353
C         8.6788975832    0.5635067215    1.2984971257
H         8.8663894571    0.7492236456    2.3483442198
C         9.6814951195    0.7784527035    0.3673648851
H        10.6490825797    1.1291744461    0.7030678729
C         9.4486781621    0.5703458343   -0.9855368805
H        10.2317691281    0.7491931633   -1.7103415042
C         8.1965404656    0.1359582388   -1.3955020399
H         7.9973264668   -0.0345240847   -2.4462181543
C         7.1920749506   -0.0984421875   -0.4703586556
H         6.2226655821   -0.4454298599   -0.8052189570
C         1.9646829227   -1.7846459169    0.5243197330
H         0.9273030546   -1.4880703373    0.6895022171
H         2.1846081103   -2.5519581315    1.2713410146
C         3.0773108666    3.1523850602    0.1806290554
H         2.5071739290    3.1765662642   -0.7511878988
H         3.9851220824    3.7331611062   -0.0014128402
C         2.0920079252   -2.3950828189   -0.8711634606
H         1.8389652904   -1.6704317840   -1.6449074412
H         3.1092203484   -2.7418160081   -1.0595294989
H         1.4213318498   -3.2488805303   -0.9832119251
C         2.2587696701    3.8223202036    1.2821380030
H         1.3181160942    3.2968927591    1.4482690634
H         2.8055199946    3.8353010989    2.2260382914
H         2.0186619517    4.8531855025    1.0180336939
C        -2.7280223412    0.7813552786   -2.7398580628
C        -3.1907274329   -0.5419076491   -2.9742574788
C        -4.2771404343   -0.7656026299   -3.7822296125
H        -4.6410441834   -1.7761412036   -3.9203650176
C        -4.9490032536    0.3077886360   -4.4019961349
N        -5.9966596419    0.0602683392   -5.2412529738
C        -4.5134407363    1.6275228424   -4.1556560611
H        -4.9992031804    2.4552565003   -4.6574021672
C        -3.4302486648    1.8614276874   -3.3432902077
C        -6.1018399275   -1.1766317657   -5.9200269328
C        -7.3142664431   -1.8607673160   -5.9105269494
H        -8.1631705664   -1.4588331093   -5.3729840237
C        -7.4152805622   -3.0710956815   -6.5730273440
H        -8.3514844845   -3.6123010282   -6.5549960524
C        -6.3197632481   -3.5937059954   -7.2487118177
H        -6.4047190615   -4.5401385580   -7.7655142928
C        -5.1172657463   -2.9002404218   -7.2647812752
H        -4.2664310969   -3.2976787685   -7.8010814737
C        -5.0018533100   -1.6888612197   -6.6043664939
H        -4.0709041265   -1.1371989811   -6.6314343172
C        -7.0149635024    1.0130695821   -5.4649185603
C        -7.4523024213    1.2513090592   -6.7659992968
H        -6.9917329222    0.7358916937   -7.5987592923
C        -8.4665539585    2.1655306803   -6.9841795602
H        -8.7994020038    2.3616045595   -7.9943274037
C        -9.0500821316    2.8327729048   -5.9143605542
H        -9.8454888429    3.5443590484   -6.0902398058
C        -8.6178640982    2.5816032324   -4.6192106687
H        -9.0818974958    3.0869676153   -3.7832888527
C        -7.6024191633    1.6701764859   -4.3862894873
H        -7.2833894277    1.4514854331   -3.3753890650
C        -2.4816425872   -1.7375214077   -2.3980252915
H        -1.9193509968   -1.4533489937   -1.5090146153
H        -3.2214047136   -2.4755340419   -2.0764128694
C        -2.9990076641    3.2797619243   -3.1007555292
H        -1.9135315361    3.3270784405   -2.9983633870
H        -3.2594981284    3.8929480342   -3.9667685242
C        -1.5397892581   -2.3727908898   -3.4200678062
H        -0.7849622601   -1.6617114071   -3.7550652354
H        -1.0211371870   -3.2258448786   -2.9828102410
H        -2.0862530670   -2.7257408777   -4.2966052228
C        -3.6582086088    3.8568885538   -1.8498266187
H        -3.3825787864    3.2890435671   -0.9617468717
H        -3.3437297643    4.8882767022   -1.6926122852
H        -4.7457965591    3.8453486645   -1.9374705442
140
 Final energy is   -3084.73720906864     
C        -0.1652001652    0.9365243712    0.2926368115
C        -0.2141274829    0.9176531448    1.7041664739
H         0.7156459839    0.9035345665    2.2645916025
C        -1.4183504243    0.9097682675    2.3695115839
C        -2.6339068971    0.9068712360    1.6215993559
C        -2.6117654228    0.9190593877    0.2509748110
H        -3.5477685593    0.9064132538   -0.3004196427
C        -1.3883785176    0.9475199766   -0.4492965465
C        -3.7508155725    0.8857791550    2.5574062990
C        -5.1185587405    0.8748308351    2.4342022590
H        -5.6046448646    0.8818328366    1.4659188271
C        -3.1849301196    0.8768932255    3.8469917395
C        -3.9329613193    0.8568984914    5.0210648197
C        -1.7747133271    0.8909198960    3.7885242823
C        -1.0832821364    0.8843252256    4.9740176488
H        -0.0009050569    0.8946208022    5.0031567294
C        -5.9015427854    0.8546354375    3.6106677602
H        -6.9802527032    0.8461704968    3.5154382710
C        -5.3421118705    0.8457032023    4.8689961960
H        -5.9813572827    0.8304925543    5.7434862779
C        -1.8154529763    0.8639006805    6.1853031570
H        -1.2647829596    0.8590231340    7.1173461810
C        -3.1915517673    0.8504701572    6.2272664174
H        -3.7049819227    0.8352287061    7.1809180388
B        -1.3559253244    0.9477951719   -1.9777717356
C        -0.0183091768    1.0135152368   -2.7159316848
C         0.0271404290    1.0630939662   -4.1240834642
H        -0.8957477610    1.0840717662   -4.6964040482
C         1.2264740745    1.0768801382   -4.7855324733
C         2.4553254030    1.0254100092   -4.0636615930
C         2.4310200398    0.9736599196   -2.6906347465
H         3.3630296984    0.9188388829   -2.1378634224
C         1.2072237715    0.9787708142   -1.9842766908
C         1.5303109627    1.1102565431   -6.2111933940
C         0.7842462262    1.1593833304   -7.3636115118
H        -0.2985743567    1.1913973747   -7.3420872393
C         2.9344792578    1.0727442742   -6.3151090956
C         3.6219894578    1.0782460063   -7.5271309173
C         3.5444064013    1.0211144778   -5.0433629936
C         4.9156927828    0.9736192821   -4.9917795041
H         5.4501797851    0.9326507052   -4.0506412523
C         1.4577337591    1.1683393047   -8.6067930102
H         0.8690704270    1.2077113097   -9.5149635181
C         2.8305462195    1.1287329760   -8.7017191715
H         3.3055192970    1.1358254331   -9.6754229438
C         5.6421972579    0.9784572567   -6.2068526099
H         6.7231183692    0.9408636090   -6.1585957726
C         5.0340480137    1.0287542770   -7.4408878619
H         5.6343391103    1.0295608833   -8.3427091528
B         1.1813144810    0.8971833344   -0.4473807145
C         2.5443264284    0.6783615960    0.3189064841
C         2.9032444342   -0.6144172340    0.7340528737
C         4.1610420198   -0.8493375476    1.2769957249
H         4.4436103772   -1.8563627335    1.5656511871
C         5.0730527133    0.1843695415    1.4257106358
C         4.7109465217    1.4722057485    1.0595593269
H         5.4220124851    2.2813077766    1.1871496683
C         3.4613057166    1.7241969459    0.5045526451
N         6.3893368898   -0.0764729942    1.8825438937
C         6.5718038521   -0.7890430026    3.0712292784
C         7.6003308804   -1.7231084625    3.2177515395
H         8.2830941270   -1.9123390891    2.4000154610
C         7.7461982243   -2.4256831422    4.4034884252
H         8.5493023872   -3.1465705191    4.4916210886
C         6.8668353377   -2.2321156102    5.4589701759
H         6.9796011295   -2.7899204225    6.3790521090
C         5.8357095202   -1.3134464516    5.3114842821
H         5.1378302606   -1.1460465457    6.1221491314
C         5.6904593123   -0.5924597439    4.1384273211
H         4.8846535436    0.1243671448    4.0450150458
C         7.4356977983    0.1298972160    0.9689081449
C         8.6801053379    0.5897262199    1.4014865532
H         8.8452498763    0.7833923117    2.4537483284
C         9.7014268022    0.8050642244    0.4905176607
H        10.6595200731    1.1635633192    0.8448298649
C         9.4986536517    0.5876628663   -0.8661230732
H        10.2959674431    0.7671673810   -1.5751518097
C         8.2580055383    0.1428608873   -1.3001647309
H         8.0818428634   -0.0344765718   -2.3538513938
C         7.2354901177   -0.0927418415   -0.3947073806
H         6.2762137599   -0.4485624799   -0.7490786086
C         1.9866168308   -1.7959550979    0.5230688947
H         0.9466447188   -1.5012267062    0.6748884248
H         2.2016085938   -2.5565440591    1.2782789833
C         3.0941786054    3.1404823688    0.1422543946
H         2.5302347674    3.1535788631   -0.7934389299
H         4.0031261832    3.7194877965   -0.0395087315
C         2.1298575600   -2.4180404668   -0.8657711711
H         1.8808219912   -1.7012917479   -1.6483371536
H         3.1503449919   -2.7622161164   -1.0411071585
H         1.4637713277   -3.2754259815   -0.9766413705
C         2.2677146603    3.8226919659    1.2303398345
H         1.3287926346    3.2948825021    1.3994729486
H         2.8100424644    3.8513517288    2.1764977277
H         2.0245164854    4.8486902451    0.9506229477
C        -2.6806677253    0.7488443778   -2.8281854735
C        -3.1323227950   -0.5710726650   -3.0850233579
C        -4.2456931457   -0.7879563215   -3.8615454649
H        -4.6053969871   -1.7983965359   -4.0132873621
C        -4.9558098043    0.2943581851   -4.4130232511
N        -6.0584898642    0.0621647388   -5.1927683112
C        -4.5207863504    1.6093072659   -4.1590039972
H        -5.0362217212    2.4431363095   -4.6200953680
C        -3.4033990103    1.8339167273   -3.3875743638
C        -6.1719547930   -1.1283797607   -5.9406221886
C        -7.3713446868   -1.8382588585   -5.9232016345
H        -8.2027985844   -1.4912826035   -5.3237012334
C        -7.4781929116   -3.0067672571   -6.6551297161
H        -8.4024244576   -3.5679337940   -6.6312041116
C        -6.4026172137   -3.4637211058   -7.4075008188
H        -6.4928063990   -4.3773233561   -7.9795937166
C        -5.2133321712   -2.7466317252   -7.4284159313
H        -4.3794881304   -3.0922622384   -8.0240842518
C        -5.0908842577   -1.5771646061   -6.6985500755
H        -4.1731835382   -1.0042953407   -6.7327861912
C        -7.1234590859    0.9835167428   -5.2480563321
C        -7.7130636141    1.2798362980   -6.4765293865
H        -7.3308613315    0.8377617015   -7.3874250743
C        -8.7773745734    2.1611934749   -6.5214450599
H        -9.2289709839    2.4030487573   -7.4739369595
C        -9.2596888911    2.7387999643   -5.3527867989
H       -10.0957794150    3.4238424530   -5.3943970210
C        -8.6737965976    2.4322055709   -4.1314006147
H        -9.0587426267    2.8662069296   -3.2187800379
C        -7.6064211757    1.5537972078   -4.0709015099
H        -7.1705267144    1.2872612021   -3.1167735663
C        -2.3937634112   -1.7730885062   -2.5596117174
H        -1.7985179282   -1.5012853421   -1.6875969025
H        -3.1153050955   -2.5216781536   -2.2217813585
C        -2.9740336089    3.2528989251   -3.1394607592
H        -1.8915657652    3.2982427452   -3.0077024345
H        -3.2074192763    3.8615868830   -4.0163536507
C        -1.4881448864   -2.3859376536   -3.6263100929
H        -0.7500340675   -1.6643239724   -3.9759376210
H        -0.9501324132   -3.2443741696   -3.2241039619
H        -2.0646807281   -2.7258177999   -4.4884693788
C        -3.6663370223    3.8418864661   -1.9125075972
H        -3.4219597895    3.2755382149   -1.0142675156
H        -3.3511778158    4.8725394031   -1.7508702139
H        -4.7509275893    3.8359398169   -2.0323789414
