140
 Final energy is   -3084.73844779510     
C         0.1641938946    0.1098678060   -0.0540500216
C         0.1536240091    0.1478574209    1.3613584094
H         1.0930634820    0.1945259361    1.9045798768
C        -1.0308126994    0.1333928571    2.0579831916
C        -2.2637559748    0.0635228824    1.3435797201
C        -2.2760447807    0.0168723174   -0.0282416172
H        -3.2213678489   -0.0409820947   -0.5583485410
C        -1.0765565452    0.0457387355   -0.7623844269
C        -1.3508904270    0.1796149127    3.4876958981
C        -0.6326304755    0.2592961165    4.6545096324
H         0.4496324547    0.3032083953    4.6577981456
C        -2.7590090117    0.1325384038    3.5800779433
C        -3.4788490209    0.1594126286    4.7711923896
C        -3.3560162897    0.0598803643    2.3052621555
C        -4.7256755624    0.0073382994    2.2159949596
H        -5.2340698930   -0.0501266291    1.2609018552
C        -1.3361427505    0.2884962081    5.8824708630
H        -0.7656741797    0.3531950238    6.8003520510
C        -2.7101754319    0.2406353217    5.9571481339
H        -3.2013329292    0.2668855353    6.9222731803
C        -4.8909827010    0.1046125945    4.6547158910
H        -5.5092229664    0.1215242949    5.5440746781
C        -5.4792054149    0.0301970577    3.4118307410
H        -6.5591467711   -0.0113106199    3.3434595043
B         1.4745426087    0.1114872645   -0.8469124861
C         1.4645285105    0.1306567611   -2.3755316479
C         2.6680385448    0.1850938201   -3.1189841758
H         3.6206807810    0.2214365400   -2.5984042787
C         2.6465957889    0.1898859025   -4.4916919521
C         1.3959523553    0.1275347116   -5.1772818449
C         0.2178888577    0.0638308526   -4.4767746644
H        -0.7258557546    0.0089493256   -5.0106140986
C         0.2160313140    0.0679153223   -3.0702084274
C         3.7048169923    0.2459505609   -5.5050916818
C         5.0757039129    0.3228437994   -5.4951445341
H         5.6396282539    0.3549619385   -4.5709992731
C         3.0543714860    0.2131025782   -6.7574296014
C         3.7033194700    0.2520260625   -7.9900074997
C         1.6543290200    0.1410394750   -6.6112035347
C         0.8730862171    0.1041116291   -7.7414221074
H        -0.2075572840    0.0493805209   -7.6876495818
C         5.7631992541    0.3632465151   -6.7319059840
H         6.8440963815    0.4240356271   -6.7179260840
C         5.1158395249    0.3296765947   -7.9464982515
H         5.6865616634    0.3642437388   -8.8667424938
C         2.8764587443    0.2126440828   -9.1410100123
H         3.3206528922    0.2398176088  -10.1287677766
C         1.5085046874    0.1406568320   -9.0041236786
H         0.8920279856    0.1116509252   -9.8940035869
B        -1.1098453783   -0.0144548311   -2.2999898627
C        -2.4884403806   -0.2029504460   -3.0610924978
C        -3.2053140441    0.8841833668   -3.5835243924
C        -4.4326824838    0.6913471245   -4.2081351903
H        -4.9699321777    1.5439451568   -4.6101820003
C        -4.9926461486   -0.5757842735   -4.3026371572
C        -4.2865081773   -1.6598197180   -3.7999056155
H        -4.7112038692   -2.6557526643   -3.8688543585
C        -3.0438132474   -1.4850718191   -3.2024108595
N        -6.2714539416   -0.7459863761   -4.8790661031
C        -7.3292895281    0.0695614108   -4.4440912399
C        -8.2766404617    0.5361276837   -5.3562322086
H        -8.1866955302    0.2763158506   -6.4035417530
C        -9.3302018285    1.3269798720   -4.9280300514
H       -10.0562898988    1.6793663657   -5.6497299386
C        -9.4483285028    1.6833203797   -3.5911264291
H       -10.2681080399    2.3078527995   -3.2614714051
C        -8.5003806114    1.2303213781   -2.6839838897
H        -8.5807887842    1.4948910603   -1.6373635085
C        -7.4534457998    0.4232767838   -3.1009506364
H        -6.7287649375    0.0643464361   -2.3815646585
C        -6.5319066183   -1.8485046423   -5.7057127397
C        -7.7117185322   -2.5826449057   -5.5715912846
H        -8.4378001733   -2.3069730511   -4.8175936401
C        -7.9598323151   -3.6691565084   -6.3956313408
H        -8.8811369386   -4.2249146468   -6.2745222361
C        -7.0334736980   -4.0581268303   -7.3526791986
H        -7.2265341061   -4.9118371097   -7.9888557999
C        -5.8539655921   -3.3365279879   -7.4813320119
H        -5.1219243487   -3.6226410394   -8.2258942226
C        -5.6054766371   -2.2375380284   -6.6752219950
H        -4.6863333088   -1.6782109519   -6.7941779206
C        -2.3014140179   -2.7164795270   -2.7507350653
H        -3.0101611590   -3.4519843553   -2.3599971674
H        -1.6275103116   -2.4743344127   -1.9259962418
C        -2.7023739774    2.2967411178   -3.4406459846
H        -2.9429876910    2.8644819288   -4.3438981361
H        -1.6136856973    2.3061928161   -3.3547879860
C        -3.3151990567    2.9962249127   -2.2293323135
H        -3.0616375073    2.4719416190   -1.3075788838
H        -2.9531004767    4.0214237420   -2.1407017236
H        -4.4033437475    3.0296199071   -2.3053237727
C        -1.5013496395   -3.3438759088   -3.8903166730
H        -0.7737225838   -2.6367360221   -4.2895099724
H        -2.1548125312   -3.6489485187   -4.7094384247
H        -0.9580682491   -4.2264935687   -3.5494318149
C         2.8449878559   -0.0067801985   -0.0702062284
C         3.6598024424    1.1225228844    0.1962912335
C         4.8141151553    0.9883872579    0.9333835627
H         5.4029030772    1.8638793174    1.1780991399
C         5.1916598572   -0.2736014440    1.4360479470
C         4.4021253773   -1.4040187392    1.1446054140
H         4.7222953444   -2.3830746841    1.4783821983
C         3.2575688235   -1.2818865239    0.3955739170
N         6.3077424581   -0.4150947798    2.2159166024
C         7.4184329451    0.4384758078    2.0754523400
C         7.8694007898    0.7810006106    0.8010182911
H         7.3835051982    0.3745959480   -0.0766253104
C         8.9609126979    1.6206424659    0.6713250464
H         9.3169550337    1.8822910107   -0.3157593615
C         9.6049096223    2.1103912462    1.8002986567
H        10.4585129809    2.7660175804    1.6932729857
C         9.1573895426    1.7544056750    3.0672579318
H         9.6544927567    2.1392615112    3.9471392610
C         8.0669759202    0.9166235191    3.2128956306
H         7.7060485327    0.6531861785    4.1984973228
C         6.3562295236   -1.4371202080    3.1903321000
C         5.2774904996   -1.6065869087    4.0561561089
H         4.4252236316   -0.9413857840    4.0024659334
C         5.3148678796   -2.6217455984    4.9952811864
H         4.4814438233   -2.7534888125    5.6717647926
C         6.4186791701   -3.4610589374    5.0720265797
H         6.4420167133   -4.2569360682    5.8042098515
C         7.4941587863   -3.2797651846    4.2106670529
H         8.3502775765   -3.9383896250    4.2647923095
C         7.4726000233   -2.2655659041    3.2697620830
H         8.3004997475   -2.1332800179    2.5853215189
C         2.4826439731   -2.5244801557    0.0442667820
H         2.6335756296   -3.2758921011    0.8228324433
H         1.4143864058   -2.3023415617    0.0307248509
C         3.2364131888    2.4899366683   -0.2660607355
H         4.1216248005    3.1137096063   -0.4103000510
H         2.7490813392    2.4118940241   -1.2397578487
C         2.8952011696   -3.1068305626   -1.3067578391
H         2.7102025540   -2.4016745331   -2.1160376920
H         2.3243514771   -4.0107652458   -1.5201465816
H         3.9543636394   -3.3678303907   -1.3187850163
C         2.2881577839    3.1712274245    0.7183696757
H         1.3706133509    2.5979013797    0.8463437522
H         2.0103351542    4.1610976695    0.3564819233
H         2.7533348546    3.2890722377    1.6981024276
