140
 Final energy is   -3084.74970919719     
C         0.1527904166    0.1208763666   -0.0458782859
C         0.1382524142    0.1553500199    1.3695391977
H         1.0762368727    0.1941406976    1.9155890161
C        -1.0487882380    0.1455831218    2.0627939397
C        -2.2805118246    0.0855502926    1.3443624293
C        -2.2890182868    0.0407540140   -0.0276614249
H        -3.2337337991   -0.0108234456   -0.5596288734
C        -1.0866745599    0.0634187785   -0.7584511578
C        -1.3725713155    0.1881785931    3.4916826455
C        -0.6563945258    0.2570431112    4.6608657066
H         0.4261585499    0.2922251228    4.6674713384
C        -2.7814331143    0.1501549226    3.5797512545
C        -3.5043938046    0.1763409822    4.7693341755
C        -3.3758795065    0.0861994253    2.3030748879
C        -4.7459412893    0.0431351833    2.2096870377
H        -5.2524921660   -0.0070112830    1.2531156259
C        -1.3634680737    0.2851584724    5.8871543552
H        -0.7947632846    0.3407752217    6.8066718452
C        -2.7383320067    0.2466646312    5.9580548355
H        -3.2320443193    0.2714235739    6.9219059390
C        -4.9167605928    0.1312583500    4.6489302767
H        -5.5370007495    0.1482188343    5.5369077268
C        -5.5025088202    0.0661088955    3.4039424515
H        -6.5825149164    0.0320786256    3.3326471493
B         1.4682689254    0.1172303005   -0.8320616766
C         1.4603637024    0.1404849423   -2.3619462989
C         2.6664019401    0.1950661050   -3.1010794275
H         3.6172258050    0.2276041059   -2.5772594423
C         2.6495262302    0.2048776810   -4.4743274680
C         1.4007247638    0.1469799652   -5.1646832932
C         0.2201031168    0.0829909677   -4.4683527905
H        -0.7214328884    0.0313907234   -5.0065456972
C         0.2134784330    0.0828836667   -3.0611953736
C         3.7114129034    0.2618721577   -5.4837320231
C         5.0827654759    0.3357041607   -5.4683361088
H         5.6436260373    0.3639624662   -4.5422032793
C         3.0650550079    0.2338095699   -6.7385807626
C         3.7186616808    0.2743676766   -7.9689463867
C         1.6641481788    0.1640362678   -6.5979926615
C         0.8866537509    0.1312151753   -7.7313146311
H        -0.1943528305    0.0781076537   -7.6819505213
C         5.7746153421    0.3777339828   -6.7029620842
H         6.8555459691    0.4360024105   -6.6846593423
C         5.1314976052    0.3487540505   -7.9203182294
H         5.7054645189    0.3842545209   -8.8384952078
C         2.8959277579    0.2393424351   -9.1233087372
H         3.3440951124    0.2679300056  -10.1092326218
C         1.5269765332    0.1695934198   -8.9917963689
H         0.9137848215    0.1437145291   -9.8840332789
B        -1.1152198307    0.0014386946   -2.2959447996
C        -2.4910317659   -0.1921400071   -3.0617463244
C        -3.2135274687    0.8916077902   -3.5839081684
C        -4.4380043420    0.6925876379   -4.2127866432
H        -4.9787436482    1.5431261536   -4.6146647182
C        -4.9897515819   -0.5779932996   -4.3125132915
C        -4.2778673866   -1.6588172707   -3.8103466507
H        -4.6956798982   -2.6574862747   -3.8821119501
C        -3.0381119524   -1.4775024756   -3.2082662040
N        -6.2658092157   -0.7540678266   -4.8926211752
C        -7.3309925547    0.0500827764   -4.4520192352
C        -8.2780693862    0.5193522033   -5.3629977846
H        -8.1823582118    0.2719808054   -6.4128879997
C        -9.3397625877    1.2972243052   -4.9301796194
H       -10.0660089075    1.6519767680   -5.6505645090
C        -9.4658406836    1.6371793098   -3.5894213851
H       -10.2921107866    2.2511302048   -3.2559948924
C        -8.5180433156    1.1812758591   -2.6831882792
H        -8.6052493421    1.4327272404   -1.6338673848
C        -7.4629001534    0.3871206805   -3.1053408338
H        -6.7393331328    0.0246236337   -2.3864563616
C        -6.5205630803   -1.8607163439   -5.7162268891
C        -7.6943204373   -2.6036143344   -5.5766207737
H        -8.4202993490   -2.3329582842   -4.8206754246
C        -7.9371157369   -3.6936723535   -6.3980738331
H        -8.8537531682   -4.2562211995   -6.2728525726
C        -7.0110591345   -4.0770449195   -7.3580273117
H        -7.1999253538   -4.9331776097   -7.9922465500
C        -5.8375003020   -3.3462990698   -7.4924413021
H        -5.1062354431   -3.6276162070   -8.2396176289
C        -5.5946726308   -2.2438880060   -6.6887766343
H        -4.6806394869   -1.6773243739   -6.8135692466
C        -2.2902223674   -2.7058946492   -2.7570638533
H        -2.9952788481   -3.4443019499   -2.3652548045
H        -1.6157435347   -2.4607152057   -1.9336296815
C        -2.7199721126    2.3072433591   -3.4379439293
H        -2.9498203363    2.8713475401   -4.3462288346
H        -1.6327073760    2.3219146287   -3.3356538086
C        -3.3541122825    3.0083173537   -2.2385771684
H        -3.1153500963    2.4866959790   -1.3112552245
H        -2.9959399066    4.0345874013   -2.1468451675
H        -4.4409011984    3.0394040955   -2.3326321652
C        -1.4894847206   -3.3313401753   -3.8973116013
H        -0.7673546449   -2.6207083153   -4.3006518157
H        -2.1433247674   -3.6424207735   -4.7138804703
H        -0.9403061410   -4.2099955368   -3.5557751007
C         2.8374109119   -0.0051609062   -0.0524171501
C         3.6510730639    1.1214761184    0.2177711633
C         4.8123560016    0.9829596468    0.9457680925
H         5.4035920894    1.8566780128    1.1916691737
C         5.1923239658   -0.2811892674    1.4356338358
C         4.4003662098   -1.4084271399    1.1472126434
H         4.7221033990   -2.3894447518    1.4740107554
C         3.2497914240   -1.2807367916    0.4057677495
N         6.3192858663   -0.4288768584    2.2036965239
C         7.4383403546    0.4038328234    2.0310612232
C         7.8606203900    0.7341703674    0.7426503319
H         7.3480456828    0.3288629023   -0.1201410700
C         8.9606798974    1.5563328226    0.5807150991
H         9.2956689116    1.8070743931   -0.4165282138
C         9.6407243691    2.0423652887    1.6906189033
H        10.5005982224    2.6850451234    1.5580475429
C         9.2212636210    1.6992163621    2.9711332312
H         9.7461504137    2.0818037095    3.8357230450
C         8.1235145189    0.8779507221    3.1496184605
H         7.7835996751    0.6270128221    4.1458233245
C         6.3637469244   -1.4376309913    3.1892888216
C         5.2859896377   -1.5886642498    4.0608720231
H         4.4396586098   -0.9162104686    4.0041175055
C         5.3202483341   -2.5919270070    5.0125145883
H         4.4895508038   -2.7080571492    5.6952127255
C         6.4181773010   -3.4390796443    5.0946983197
H         6.4386010512   -4.2257855226    5.8368744778
C         7.4915542105   -3.2774849700    4.2262113988
H         8.3421449517   -3.9429229789    4.2840931321
C         7.4744284369   -2.2745099557    3.2735913465
H         8.2993998150   -2.1593769011    2.5825267318
C         2.4728494681   -2.5224847747    0.0538406489
H         2.6161949730   -3.2720331215    0.8355081719
H         1.4051038691   -2.2978394396    0.0319809604
C         3.2234739784    2.4935965846   -0.2276136930
H         4.1075328770    3.1133767884   -0.3936381509
H         2.7085721049    2.4235504657   -1.1877241795
C         2.8933709822   -3.1110458285   -1.2919256771
H         2.7221428201   -2.4053165013   -2.1040715455
H         2.3190260933   -4.0119646376   -1.5094201422
H         3.9508616018   -3.3787141215   -1.2929083525
C         2.3078295075    3.1749570631    0.7870045534
H         1.3938782425    2.6021376371    0.9424777708
H         2.0212574541    4.1670485802    0.4378146916
H         2.8038254142    3.2877087187    1.7519880678
