140
 Final energy is   -3084.69830958783     
C         0.1515313524    0.1545520742   -0.0209452484
C         0.1427049027    0.1910710636    1.3949286094
H         1.0817827296    0.2533591838    1.9382942865
C        -1.0395358622    0.1571188422    2.0916686950
C        -2.2707169209    0.0711910988    1.3795074862
C        -2.2842097487    0.0320688496    0.0076238143
H        -3.2270679029   -0.0378702173   -0.5251167442
C        -1.0871677012    0.0795131294   -0.7265145753
C        -1.3582234218    0.1913938653    3.5224480842
C        -0.6407865429    0.2775681643    4.6875600327
H         0.4403662558    0.3432974349    4.6882670517
C        -2.7640641396    0.1183691923    3.6169155499
C        -3.4817774530    0.1243136119    4.8084490586
C        -3.3605394804    0.0429038377    2.3427834247
C        -4.7277160228   -0.0346378620    2.2559073820
H        -5.2356691834   -0.0963012577    1.3011669842
C        -1.3411655265    0.2864135615    5.9165594101
H        -0.7711803739    0.3572009138    6.8342610000
C        -2.7127256293    0.2119938371    5.9923491352
H        -3.2023522826    0.2232062242    6.9584431489
C        -4.8919938695    0.0440307438    4.6933858299
H        -5.5094545345    0.0436972980    5.5832627484
C        -5.4797841906   -0.0331975583    3.4520673469
H        -6.5587137567   -0.0946196589    3.3848766817
B         1.4540931235    0.1698663916   -0.8216072378
C         1.4528136975    0.1931917225   -2.3466536198
C         2.6559045808    0.2414926501   -3.0943086242
H         3.6115303678    0.2753799294   -2.5781454417
C         2.6302055506    0.2459312964   -4.4647948765
C         1.3783024286    0.1868574365   -5.1462200801
C         0.2020979533    0.1210774444   -4.4419344173
H        -0.7445817048    0.0640224862   -4.9699159350
C         0.2039308579    0.1227216273   -3.0375371296
C         3.6853970698    0.3021308192   -5.4817642460
C         5.0551183351    0.3760982556   -5.4768347986
H         5.6215290481    0.4045569618   -4.5541432070
C         3.0312538304    0.2736124803   -6.7309927172
C         3.6754581388    0.3147079873   -7.9649520606
C         1.6320851670    0.2038606385   -6.5792515760
C         0.8476941795    0.1726812095   -7.7063976671
H        -0.2325885750    0.1208671504   -7.6481869957
C         5.7388135004    0.4180678782   -6.7144222250
H         6.8198360112    0.4765478388   -6.7048325434
C         5.0870761074    0.3893722641   -7.9254843393
H         5.6548936296    0.4254085048   -8.8473368252
C         2.8443979825    0.2807403715   -9.1120955948
H         3.2843510711    0.3100757735  -10.1015287750
C         1.4779109137    0.2114129944   -8.9703885740
H         0.8583270182    0.1868114139   -9.8580640924
B        -1.1205989092    0.0244564787   -2.2651018252
C        -2.4935356759   -0.1807327513   -3.0275774395
C        -3.2145288453    0.8957987847   -3.5645156269
C        -4.4318597556    0.6855093272   -4.2010218959
H        -4.9746105901    1.5279048511   -4.6160276255
C        -4.9759374783   -0.5879583338   -4.2932186286
C        -4.2673456579   -1.6604678038   -3.7713852102
H        -4.6837909086   -2.6598365498   -3.8387665918
C        -3.0343576897   -1.4692290626   -3.1613040072
N        -6.2438412819   -0.7784205825   -4.8880021758
C        -7.3150515265    0.0292889718   -4.4759839270
C        -8.2534408077    0.4841210102   -5.4026062145
H        -8.1456971976    0.2184618806   -6.4464746918
C        -9.3183957937    1.2676427396   -4.9926958004
H       -10.0373166687    1.6103648331   -5.7258922280
C        -9.4578186686    1.6296019528   -3.6604343509
H       -10.2869680225    2.2486968275   -3.3450248464
C        -8.5185704005    1.1897396777   -2.7393613913
H        -8.6148925133    1.4600430472   -1.6957036743
C        -7.4602690425    0.3900312343   -3.1372568511
H        -6.7392861774    0.0415912401   -2.4094863384
C        -6.4696858376   -1.8727271672   -5.7329513233
C        -7.6584483866   -2.6009619017   -5.6627635174
H        -8.4176298453   -2.3249451633   -4.9426886726
C        -7.8721218346   -3.6786997168   -6.5058199619
H        -8.8016082196   -4.2290183891   -6.4337851749
C        -6.9033872838   -4.0674658355   -7.4185507348
H        -7.0701918489   -4.9151647488   -8.0695862315
C        -5.7149712242   -3.3538753220   -7.4817570256
H        -4.9482550433   -3.6404624691   -8.1901648532
C        -5.4991456754   -2.2629256520   -6.6575657516
H        -4.5714313835   -1.7097205168   -6.7229639776
C        -2.2836973025   -2.6877228599   -2.6895592501
H        -2.9906476298   -3.4311445928   -2.3105210414
H        -1.6332272620   -2.4331459414   -1.8498596528
C        -2.7262452831    2.3132583326   -3.4217165144
H        -2.9900542003    2.8831927791   -4.3170530183
H        -1.6361944062    2.3361990449   -3.3570662944
C        -3.3254672455    2.9957848848   -2.1942999892
H        -3.0435594322    2.4716842816   -1.2810165097
H        -2.9796626733    4.0267061742   -2.1071508906
H        -4.4152011927    3.0105303634   -2.2475578545
C        -1.4504526710   -3.3071530972   -3.8092412356
H        -0.7203465465   -2.5936742573   -4.1916257661
H        -2.0812378050   -3.6185156711   -4.6433029071
H        -0.9071436402   -4.1850844487   -3.4560321755
C         2.8222011225    0.0233904231   -0.0578912268
C         3.6910473229    1.1314324948    0.1643417535
C         4.8487185723    0.9702521863    0.8823371266
H         5.4780652621    1.8264466874    1.0908861254
C         5.1855736403   -0.2926975000    1.4206848456
C         4.3430275637   -1.3996620263    1.1770262068
H         4.6307432952   -2.3785709060    1.5386007925
C         3.1969019607   -1.2601164302    0.4404757561
N         6.3071289368   -0.4541152514    2.1817354614
C         7.4376223008    0.3761725464    2.0190867685
C         7.9019381790    0.6672596900    0.7388392076
H         7.4062285286    0.2459163793   -0.1263075002
C         9.0075207501    1.4848050914    0.5842954213
H         9.3682551394    1.7098666071   -0.4100661570
C         9.6573128101    2.0000168526    1.6967969503
H        10.5218200779    2.6375074833    1.5714722776
C         9.1995637208    1.6918133854    2.9709531529
H         9.7019162261    2.0937367113    3.8401491573
C         8.0918282396    0.8804135885    3.1390117285
H         7.7259430645    0.6500466024    4.1309394753
C         6.3545304272   -1.4715578662    3.1653239733
C         5.3068834690   -1.5934831416    4.0736321517
H         4.4742098046   -0.9027462198    4.0372722572
C         5.3399923800   -2.6010019266    5.0215665398
H         4.5252949148   -2.6971963556    5.7261841750
C         6.4141992487   -3.4778707671    5.0703585349
H         6.4356392515   -4.2663492623    5.8102606715
C         7.4617621310   -3.3429830068    4.1692419643
H         8.2967426253   -4.0295423955    4.2011314974
C         7.4391391795   -2.3403876128    3.2154266391
H         8.2466250212   -2.2425880806    2.5014308208
C         2.3718084043   -2.4795635288    0.1321658158
H         2.5524604576   -3.2372022315    0.8987892596
H         1.3115673550   -2.2290969929    0.1854599917
C         3.3056017646    2.4967175321   -0.3308549432
H         4.2024461785    3.1143810232   -0.4220156976
H         2.8793673980    2.4118279786   -1.3322967722
C         2.6858564551   -3.0659650672   -1.2445973993
H         2.4635276468   -2.3568287805   -2.0400972574
H         2.0816464810   -3.9558737830   -1.4203107768
H         3.7353806613   -3.3521139643   -1.3261725506
C         2.2980699114    3.1885243762    0.5863938441
H         1.3687849948    2.6249223240    0.6549981309
H         2.0536769539    4.1772719592    0.1992428741
H         2.6968274712    3.3111177739    1.5942222414
