140
 Final energy is   -3084.72030976760     
C         0.1719736631    0.1040580968   -0.0555958112
C         0.1645595718    0.1441804146    1.3599502095
H         1.1048163059    0.2025649760    1.9010927887
C        -1.0173477434    0.1191742584    2.0589633242
C        -2.2505547768    0.0367507896    1.3479109405
C        -2.2658381166   -0.0077583713   -0.0238294815
H        -3.2109625991   -0.0733955952   -0.5532132071
C        -1.0690741877    0.0323056640   -0.7604115994
C        -1.3345643871    0.1632234780    3.4895523387
C        -0.6152256149    0.2523576405    4.6542760839
H         0.4664123151    0.3100600132    4.6544770572
C        -2.7414088529    0.1003918119    3.5855219893
C        -3.4585161777    0.1197679282    4.7778896339
C        -3.3399483711    0.0209758330    2.3121566706
C        -4.7085200176   -0.0472680309    2.2264522627
H        -5.2179768097   -0.1111650036    1.2724799763
C        -1.3154363778    0.2745175210    5.8837478023
H        -0.7440033357    0.3473231813    6.8004568952
C        -2.6880913364    0.2104952593    5.9613965357
H        -3.1771083651    0.2319476734    6.9277073495
C        -4.8698293252    0.0489458487    4.6645862332
H        -5.4864328882    0.0592426507    5.5551243564
C        -5.4595288491   -0.0325877749    3.4235595310
H        -6.5390390753   -0.0865440425    3.3575819748
B         1.4768039434    0.1136525768   -0.8549107771
C         1.4680487523    0.1304649113   -2.3815691402
C         2.6698919573    0.1821076575   -3.1286686952
H         3.6244402106    0.2184928972   -2.6110451847
C         2.6445699537    0.1842589513   -4.5004396066
C         1.3924177310    0.1224631808   -5.1820385784
C         0.2163770852    0.0595569418   -4.4780880214
H        -0.7296009623    0.0038570351   -5.0076900948
C         0.2184418911    0.0645164703   -3.0723737652
C         3.6998703100    0.2385249797   -5.5171527512
C         5.0702699282    0.3136129613   -5.5117278263
H         5.6367389646    0.3450312229   -4.5891217994
C         3.0459734474    0.2060498261   -6.7671808058
C         3.6909671761    0.2440847511   -8.0013751857
C         1.6466215185    0.1353831928   -6.6161767276
C         0.8623407996    0.0994896955   -7.7436999276
H        -0.2180629887    0.0462512596   -7.6861421590
C         5.7542770151    0.3528796869   -6.7498995711
H         6.8353113916    0.4122507453   -6.7396053898
C         5.1031704563    0.3200688945   -7.9618893786
H         5.6712684627    0.3538819225   -8.8837594135
C         2.8605254722    0.2056643033   -9.1493844698
H         3.3013160792    0.2323350464  -10.1386378052
C         1.4935200493    0.1352443027   -9.0080599798
H         0.8742013386    0.1071025304   -9.8959546812
B        -1.1053869662   -0.0220975634   -2.2986289753
C        -2.4852501487   -0.2076253106   -3.0563049539
C        -3.1981996069    0.8818825636   -3.5783916340
C        -4.4269300950    0.6929294040   -4.2006957315
H        -4.9624123036    1.5465425795   -4.6025971960
C        -4.9915806057   -0.5719551753   -4.2923727971
C        -4.2897342231   -1.6579665470   -3.7887648967
H        -4.7194003938   -2.6517910149   -3.8563684220
C        -3.0455474448   -1.4876201515   -3.1941066572
N        -6.2714983456   -0.7394173875   -4.8678901416
C        -7.3248772159    0.0839367660   -4.4395912162
C        -8.2716377337    0.5476537726   -5.3536668960
H        -8.1843238560    0.2779920376   -6.3985699798
C        -9.3198728422    1.3474178107   -4.9304372978
H       -10.0452964740    1.6973208161   -5.6539445611
C        -9.4337623852    1.7162958346   -3.5970869823
H       -10.2494972642    2.3480493957   -3.2714458218
C        -8.4864262848    1.2666076828   -2.6883224791
H        -8.5629752011    1.5415588788   -1.6441361008
C        -7.4448867897    0.4507428686   -3.0996524495
H        -6.7191171622    0.0953183265   -2.3798648231
C        -6.5315956336   -1.8355041647   -5.7020486055
C        -7.7182081572   -2.5611945787   -5.5837934113
H        -8.4493732791   -2.2822209341   -4.8360755797
C        -7.9658790772   -3.6416830438   -6.4149473864
H        -8.8926780822   -4.1906692703   -6.3059024644
C        -7.0327984143   -4.0340245183   -7.3634654079
H        -7.2256328251   -4.8835298195   -8.0051779903
C        -5.8465776115   -3.3217058242   -7.4756960036
H        -5.1084712374   -3.6109497989   -8.2129612002
C        -5.5979336098   -2.2284208029   -6.6627445741
H        -4.6728567366   -1.6763514331   -6.7672540893
C        -2.3060885567   -2.7205417610   -2.7421343795
H        -3.0174006590   -3.4557767866   -2.3554294000
H        -1.6360636405   -2.4807984841   -1.9135711992
C        -2.6894366814    2.2922258632   -3.4353133305
H        -2.9439604460    2.8657761861   -4.3310668865
H        -1.5993777117    2.2991932091   -3.3685817398
C        -3.2800547852    2.9844288079   -2.2089776306
H        -3.0084130144    2.4554983700   -1.2952098331
H        -2.9172236219    4.0094719964   -2.1212495150
H        -4.3694310144    3.0170346006   -2.2643983811
C        -1.5021754537   -3.3457339005   -3.8800723532
H        -0.7703374384   -2.6395442035   -4.2727784225
H        -2.1525359891   -3.6453694319   -4.7035643252
H        -0.9632341929   -4.2315331666   -3.5403457721
C         2.8468723821   -0.0032335061   -0.0807201832
C         3.6735646418    1.1256350668    0.1700074426
C         4.8213519593    0.9927084752    0.9134935694
H         5.4173511683    1.8664761748    1.1459963462
C         5.1865004981   -0.2651871719    1.4414572970
C         4.3871350961   -1.3945813011    1.1638565789
H         4.6972449357   -2.3699859452    1.5167480891
C         3.2501597309   -1.2774038921    0.4063374438
N         6.2956720776   -0.4025787917    2.2263962011
C         7.4067732857    0.4559716882    2.0946893804
C         7.8787655378    0.7848523124    0.8254451276
H         7.4061102361    0.3692373063   -0.0552200424
C         8.9688968254    1.6279630338    0.7036209006
H         9.3389327177    1.8808399758   -0.2805936459
C         9.5925977867    2.1328329542    1.8364818198
H        10.4452432213    2.7906187086    1.7360934656
C         9.1254403131    1.7888960661    3.0989237579
H         9.6072479211    2.1842049017    3.9826773698
C         8.0348414075    0.9493817296    3.2356424970
H         7.6603370135    0.6924423601    4.2178790144
C         6.3454492172   -1.4261408834    3.2022341175
C         5.2740998294   -1.5876095277    4.0771625715
H         4.4240838683   -0.9192456682    4.0263280142
C         5.3112686819   -2.6026374362    5.0168042270
H         4.4810289982   -2.7294776311    5.6980972593
C         6.4098770697   -3.4483094483    5.0869220778
H         6.4335689539   -4.2436288745    5.8195773841
C         7.4793731476   -3.2739850022    4.2176886499
H         8.3324927366   -3.9368571075    4.2668416726
C         7.4559065606   -2.2613736547    3.2747727091
H         8.2802996238   -2.1328465476    2.5853946551
C         2.4674114858   -2.5176582052    0.0679401236
H         2.6316980113   -3.2695435325    0.8435435892
H         1.3999141765   -2.2925661776    0.0746133943
C         3.2647303709    2.4863438776   -0.3222877072
H         4.1520739086    3.1166550002   -0.4177256065
H         2.8362788600    2.3974265300   -1.3223989566
C         2.8540617124   -3.0991565631   -1.2914649220
H         2.6506109697   -2.3957334720   -2.0974099089
H         2.2794853330   -4.0034174128   -1.4921702979
H         3.9128971436   -3.3596672035   -1.3256003778
C         2.2533908752    3.1661006315    0.5990224057
H         1.3310686420    2.5914607880    0.6710301657
H         1.9959389008    4.1528284954    0.2146860376
H         2.6549095430    3.2913183998    1.6055813053
