140
 Final energy is   -3084.73901419995     
C        -0.0878483321    0.7671560412    0.0334919117
C        -0.1435963299    0.8449443261    1.4450356779
H         0.7787444757    0.8532203899    2.0188467627
C        -1.3497011742    0.9080020485    2.0981299225
C        -2.5609041678    0.8891681411    1.3443329055
C        -2.5286366417    0.8147455995   -0.0269875855
H        -3.4563510307    0.7984642577   -0.5901462403
C        -1.3042266478    0.7562684461   -0.7189760842
C        -3.6804426893    0.9564580977    2.2743692532
C        -5.0483464232    0.9685717335    2.1498029700
H        -5.5337306090    0.9235648870    1.1823357365
C        -5.8323351806    1.0410586477    3.3244024686
H        -6.9106215551    1.0493589285    3.2257657845
C        -5.2772717993    1.1013636528    4.5829672739
H        -5.9174881404    1.1561420134    5.4551132761
C        -3.1195891449    1.0169787483    3.5655355103
C        -3.8686749773    1.0907632176    4.7366984072
C        -1.7103330673    0.9920998877    3.5142800206
C        -1.0209872773    1.0473436244    4.6993113924
H         0.0614997549    1.0344675857    4.7307072206
C        -1.7542836955    1.1243025549    5.9071380433
H        -1.2065794553    1.1684444716    6.8399620299
C        -3.1304021224    1.1457650332    5.9430642982
H        -3.6470521019    1.2053283200    6.8932920428
B        -1.2840399742    0.6618271162   -2.2571693560
B         1.2464696111    0.6727163235   -0.7044094835
C         1.2907623097    0.6176574499   -2.2318463270
C         2.5247433021    0.5483488881   -2.9183715030
H         3.4539358387    0.5295630461   -2.3572147965
C         2.5642399146    0.5037168262   -4.2876265384
C         3.6759080888    0.4371906786   -5.2377549736
C         5.0452930651    0.3960069436   -5.1473844995
H         5.5551600396    0.4087142980   -4.1918204428
C         5.8017449958    0.3357332558   -6.3415710001
H         6.8814594737    0.3035759069   -6.2671845581
C         5.2209526583    0.3163376421   -7.5900156208
H         5.8432346607    0.2699363924   -8.4756086413
C         3.0931510191    0.4164768792   -6.5221934531
C         3.8109216992    0.3572925604   -7.7148761166
C         1.6850029994    0.4642867925   -6.4519332018
C         0.9680297610    0.4521717345   -7.6241556949
H        -0.1146505471    0.4874720091   -7.6316468497
C         1.6731217378    0.3921573608   -8.8486368741
H         1.1058163573    0.3830752992   -9.7710228776
C         3.0476796846    0.3457380751   -8.9097908994
H         3.5447229838    0.3007583241   -9.8713494915
C         1.3468290445    0.5192182410   -5.0346695455
C         0.1358872060    0.5710907053   -4.3873515484
H        -0.7850028534    0.5719157450   -4.9628652679
C         0.0722930139    0.6218740486   -2.9805317056
C         2.6077883363    0.5643849713    0.0929566028
C         2.9940279993   -0.6776607698    0.6558835387
C         4.1995079297   -0.7958441988    1.3085351416
H         4.5069208548   -1.7576638575    1.7007934352
C         5.0724424096    0.3032808886    1.3939941855
C         4.6977142051    1.5396754887    0.8360995274
H         5.3532694491    2.3958028587    0.9395218008
C         3.4783032770    1.6768682683    0.2131932627
N         6.2937615402    0.1623168968    2.0074973268
C         6.4394452076   -0.7041085769    3.1059682547
C         7.5518426877   -1.5414962578    3.1920781305
H         8.3028326402   -1.5365882752    2.4128535536
C         7.6658584630   -2.4060364001    4.2652170022
H         8.5184243481   -3.0685644548    4.3264609945
C         6.6848895352   -2.4373204002    5.2496333392
H         6.7795010900   -3.1178208620    6.0850771616
C         5.5844157881   -1.5941721299    5.1629733286
H         4.8263893612   -1.6069490253    5.9341389250
C         5.4561035713   -0.7237309456    4.0962650066
H         4.6101819007   -0.0506945294    4.0392800609
C         7.4113482151    0.8625992839    1.5193594636
C         8.3065677330    1.4540297845    2.4094099762
H         8.1354062684    1.3950581602    3.4762741370
C         9.3966318748    2.1432298922    1.9108510133
H        10.0862991701    2.6170261710    2.5959109715
C         9.5991856483    2.2405818674    0.5389071723
H        10.4542209577    2.7818445257    0.1569650448
C         8.7079087709    1.6412289256   -0.3421826775
H         8.8715939948    1.7028739622   -1.4093995057
C         7.6134849981    0.9479763415    0.1406774116
H         6.9320506924    0.4556973487   -0.5414251313
C         2.1382293704   -1.9063448797    0.4931121553
H         2.3260685204   -2.5861812735    1.3275859664
H         1.0832424909   -1.6345782360    0.5457282147
C         3.0636889001    3.0290528518   -0.2994885988
H         2.5461008498    2.9203563398   -1.2544779499
H         3.9535683073    3.6314467247   -0.4956366768
C         2.4066746547   -2.6354201329   -0.8228911793
H         2.1774077365   -2.0048103478   -1.6811731621
H         3.4503064145   -2.9439655112   -0.8988494198
H         1.7864976462   -3.5290659727   -0.8946651468
C         2.1560437239    3.7654323364    0.6836709052
H         1.2354882051    3.2110349876    0.8637757643
H         2.6533388332    3.9175855910    1.6425967257
H         1.8796619363    4.7430466537    0.2888165196
C        -2.6435670814    0.5693195000   -3.0699775256
C        -3.2965651799   -0.6646701584   -3.2213424684
C        -4.5172046445   -0.7472477265   -3.8802579666
H        -5.0179421814   -1.7064261529   -3.9590441722
C        -5.1064330324    0.3817312966   -4.4315817835
C        -4.4529901150    1.6010502881   -4.3198672325
H        -4.9005407804    2.4880769023   -4.7560379401
C        -3.2455594098    1.7030729530   -3.6370995154
N        -6.3621450982    0.3017631451   -5.0755417466
C        -7.3746271356    1.2008242996   -4.7040501565
C        -8.2269128661    1.7436927266   -5.6663560625
H        -8.1025088356    1.4751098215   -6.7078798376
C        -9.2303866965    2.6239199154   -5.2955272976
H        -9.8824848092    3.0347548470   -6.0559209954
C        -9.3908146003    2.9944542296   -3.9669672643
H       -10.1708143582    3.6881506817   -3.6821990437
C        -8.5363334669    2.4650014909   -3.0096848852
H        -8.6504913596    2.7396213737   -1.9687902434
C        -7.5419730606    1.5691137440   -3.3692213192
H        -6.8910832761    1.1516538409   -2.6117350296
C        -6.6361760897   -0.7535065360   -5.9555505325
C        -7.8812462132   -1.3860476992   -5.9541467152
H        -8.6496935180   -1.0668033871   -5.2619059857
C        -8.1415852918   -2.4261769323   -6.8322682568
H        -9.1140852581   -2.9017923963   -6.8136883603
C        -7.1657404154   -2.8719381537   -7.7126379660
H        -7.3697242176   -3.6896813892   -8.3911790345
C        -5.9220681901   -2.2544683055   -7.7068423223
H        -5.1490560724   -2.5859680148   -8.3885754226
C        -5.6582181870   -1.2011089485   -6.8466923644
H        -4.6871591130   -0.7232208424   -6.8627631464
C        -2.6882440925   -1.9455727774   -2.7102966866
H        -2.0544419296   -1.7462344076   -1.8438914420
H        -3.4802891066   -2.6150504855   -2.3634024180
C        -2.6369320036    3.0719012950   -3.4821823558
H        -1.5570174947    2.9933291801   -3.3400834425
H        -2.7843333083    3.6446736968   -4.4020733937
C        -1.8689060307   -2.6545347445   -3.7872050185
H        -1.0561323893   -2.0195809155   -4.1405954892
H        -1.4293685995   -3.5762344952   -3.4028584440
H        -2.4892993304   -2.9129797844   -4.6470937317
C        -3.2504953936    3.8354042088   -2.3104757184
H        -3.0799070035    3.3099445775   -1.3703796415
H        -2.8170351484    4.8323163310   -2.2189945084
H        -4.3283833700    3.9481564253   -2.4381996561
