140
 Final energy is   -3084.75021923038     
C        -0.0908105597    0.7803135140    0.0326345757
C        -0.1493339464    0.8552760896    1.4441941194
H         0.7717536596    0.8576166139    2.0198210899
C        -1.3570264017    0.9222776436    2.0949326562
C        -2.5670744788    0.9110909844    1.3381061153
C        -2.5321978011    0.8372788883   -0.0332663002
H        -3.4594913418    0.8254032564   -0.5973079072
C        -1.3060730912    0.7743174304   -0.7230484774
C        -3.6885996205    0.9831545805    2.2658754006
C        -5.0564533299    1.0041877518    2.1380858044
H        -5.5403296676    0.9650472263    1.1695194375
C        -5.8425504064    1.0783821126    3.3114922144
H        -6.9205454594    1.0938744413    3.2106217832
C        -5.2895486078    1.1314091705    4.5717046281
H        -5.9310957437    1.1874503647    5.4428023841
C        -3.1297998104    1.0371458579    3.5584011895
C        -3.8811504483    1.1117489839    4.7284203487
C        -1.7203752444    1.0042484594    3.5104319053
C        -1.0328484767    1.0510423580    4.6972963602
H         0.0494396962    1.0308379356    4.7312440477
C        -1.7688079390    1.1281752304    5.9038375260
H        -1.2227053348    1.1652019725    6.8378643560
C        -3.1451801349    1.1581522121    5.9369289151
H        -3.6637252419    1.2175028738    6.8861304074
B        -1.2829277511    0.6788410652   -2.2611241186
B         1.2473684711    0.6819473826   -0.6998306438
C         1.2922334787    0.6303819709   -2.2285981961
C         2.5280001677    0.5613253881   -2.9117933396
H         3.4554480259    0.5399132357   -2.3481186362
C         2.5711079814    0.5203275624   -4.2815271126
C         3.6854744491    0.4544724646   -5.2284253226
C         5.0547965780    0.4112314181   -5.1333734755
H         5.5618930588    0.4213430181   -4.1763087540
C         5.8146847093    0.3523971572   -6.3258481640
H         6.8940487202    0.3187777994   -6.2478463945
C         5.2376788544    0.3362586781   -7.5764642264
H         5.8624934398    0.2908331906   -8.4603163857
C         3.1062409180    0.4372357652   -6.5147293364
C         3.8277625951    0.3793295202   -7.7055363800
C         1.6977700563    0.4866708593   -6.4490412241
C         0.9840695799    0.4773653745   -7.6236471957
H        -0.0986174504    0.5136754831   -7.6347863624
C         1.6931081844    0.4187164414   -8.8462477859
H         1.1287021239    0.4117797429   -9.7704239777
C         3.0681579146    0.3708243163   -8.9030506149
H         3.5683775828    0.3268475345   -9.8630147133
C         1.3554460365    0.5391835775   -5.0322621910
C         0.1426764250    0.5912126653   -4.3881510228
H        -0.7762179852    0.5950086242   -4.9669898990
C         0.0752531878    0.6386319723   -2.9807638970
C         2.6073956835    0.5677388255    0.1002289952
C         2.9914180155   -0.6765933082    0.6543869206
C         4.1990666831   -0.8018875159    1.3049374249
H         4.5056348638   -1.7669954989    1.6899372087
C         5.0714485028    0.2946934383    1.3961227483
C         4.6984350337    1.5346273730    0.8499586210
H         5.3549796370    2.3893725647    0.9589917289
C         3.4775574303    1.6770384690    0.2278954551
N         6.2977195266    0.1465794895    2.0053127487
C         6.4384099579   -0.7086304891    3.1103885362
C         7.5494095785   -1.5483314493    3.2062721154
H         8.3014501032   -1.5538584780    2.4281124296
C         7.6581145155   -2.4045715114    4.2861870517
H         8.5085880323   -3.0690614408    4.3547639674
C         6.6738655824   -2.4255624748    5.2681431243
H         6.7646620820   -3.0994744089    6.1093836645
C         5.5748045150   -1.5808062198    5.1716244189
H         4.8151207362   -1.5854530231    5.9412659665
C         5.4507022319   -0.7190873974    4.0977272156
H         4.6071874328   -0.0436758792    4.0341367350
C         7.4168882190    0.8281840830    1.5002530797
C         8.3322443728    1.4104970729    2.3769745438
H         8.1735329399    1.3595423153    3.4461349266
C         9.4242355240    2.0835110591    1.8614722835
H        10.1289473686    2.5508494821    2.5355725379
C         9.6096212679    2.1732135710    0.4861712600
H        10.4669703254    2.7012517682    0.0910065906
C         8.6983417578    1.5832739655   -0.3814744077
H         8.8493574179    1.6384046537   -1.4509284057
C         7.6008348526    0.9072626658    0.1178106595
H         6.9050629460    0.4204768391   -0.5536259605
C         2.1344432633   -1.9043392258    0.4865076873
H         2.3129543030   -2.5829373787    1.3238651736
H         1.0793052457   -1.6308497288    0.5286551255
C         3.0654741085    3.0347445588   -0.2733351238
H         2.5362480390    2.9350286545   -1.2230623251
H         3.9563984984    3.6330933085   -0.4762540768
C         2.4144277016   -2.6372581749   -0.8247896692
H         2.2009215272   -2.0053088883   -1.6864063143
H         3.4572604772   -2.9513456933   -0.8867701408
H         1.7905884912   -3.5278990565   -0.9040973674
C         2.1744484912    3.7712222625    0.7246950377
H         1.2547308282    3.2186701839    0.9155872154
H         2.6857114128    3.9159132524    1.6773314221
H         1.8969805000    4.7523261704    0.3389432851
C        -2.6415766226    0.5798471769   -3.0757259800
C        -3.2829202658   -0.6596906468   -3.2333884113
C        -4.5048005147   -0.7507036720   -3.8892856550
H        -4.9959148661   -1.7145896772   -3.9714209090
C        -5.1072412976    0.3757325932   -4.4320610465
C        -4.4644868946    1.6006844138   -4.3159306456
H        -4.9207045109    2.4859456199   -4.7468275265
C        -3.2558051138    1.7105679015   -3.6361482277
N        -6.3639878497    0.2880987897   -5.0720830212
C        -7.3827615858    1.1781660714   -4.6936835772
C        -8.2370340546    1.7234015246   -5.6528645960
H        -8.1097826272    1.4645944599   -6.6965924874
C        -9.2470017140    2.5940794098   -5.2761206678
H        -9.9008816095    3.0070527106   -6.0338278993
C        -9.4116561733    2.9519993881   -3.9443110767
H       -10.1967753465    3.6379539995   -3.6547654849
C        -8.5552938531    2.4197839392   -2.9898719302
H        -8.6733628987    2.6841889722   -1.9467545771
C        -7.5543811321    1.5333187812   -3.3558380981
H        -6.9029854850    1.1129679996   -2.6002506283
C        -6.6358626988   -0.7693879902   -5.9506698828
C        -7.8757907503   -1.4120097612   -5.9399467306
H        -8.6418955511   -1.1000477625   -5.2417241157
C        -8.1346552732   -2.4537865411   -6.8170501782
H        -9.1031145238   -2.9372764988   -6.7913531198
C        -7.1619194740   -2.8907572896   -7.7056361513
H        -7.3645913351   -3.7095335082   -8.3833714311
C        -5.9232074423   -2.2627371700   -7.7095666925
H        -5.1531877485   -2.5868306744   -8.3982430603
C        -5.6613739782   -1.2076748547   -6.8504207065
H        -4.6946127251   -0.7213273524   -6.8753902623
C        -2.6604062134   -1.9380434291   -2.7328902329
H        -2.0145793505   -1.7357864798   -1.8760428043
H        -3.4428500708   -2.6131116686   -2.3753525202
C        -2.6584138458    3.0842836506   -3.4797285722
H        -1.5784392426    3.0136246649   -3.3332980711
H        -2.8064219395    3.6553420953   -4.4005455979
C        -1.8526947945   -2.6405081637   -3.8227413146
H        -1.0557934068   -1.9956299672   -4.1941759904
H        -1.3939722114   -3.5549408708   -3.4436578066
H        -2.4858406314   -2.9105731432   -4.6697002930
C        -3.2821461898    3.8453966071   -2.3118800425
H        -3.1148517143    3.3212355441   -1.3703569905
H        -2.8543767488    4.8445914906   -2.2189429524
H        -4.3598188586    3.9528721684   -2.4457995926
