140
 Final energy is   -3084.72095610536     
C        -0.0844811474    0.7581742392    0.0338096783
C        -0.1376290103    0.8377750935    1.4455541734
H         0.7856227707    0.8533825686    2.0181733080
C        -1.3421300852    0.8940211453    2.1006833006
C        -2.5541083203    0.8669834765    1.3499319000
C        -2.5241886485    0.7936650870   -0.0214204182
H        -3.4519075679    0.7724438945   -0.5842611798
C        -1.3015600422    0.7416234987   -0.7154359829
C        -3.6716754657    0.9264804045    2.2823029371
C        -5.0393188459    0.9277009842    2.1610821107
H        -5.5260078033    0.8776842564    1.1946546735
C        -5.8213428821    0.9949016600    3.3368634482
H        -6.8998286152    0.9944277737    3.2404463851
C        -5.2645137009    1.0607538267    4.5936777938
H        -5.9035264018    1.1113497973    5.4669037519
C        -3.1090936981    0.9920417624    3.5721548124
C        -3.8559377908    1.0612047971    4.7444765408
C        -1.7002441902    0.9773876993    3.5176524921
C        -1.0093658034    1.0394711731    4.7007063281
H         0.0732684941    1.0355926053    4.7293011764
C        -1.7398968091    1.1123552454    5.9099434540
H        -1.1908358430    1.1623764600    6.8416941390
C        -3.1155044402    1.1231039065    5.9485623234
H        -3.6303439094    1.1799118105    6.8999179540
B        -1.2839949377    0.6480363906   -2.2539924812
B         1.2450555814    0.6703762406   -0.7106696135
C         1.2907296312    0.6122054472   -2.2360627159
C         2.5232034431    0.5437656167   -2.9260824039
H         3.4545913968    0.5296890455   -2.3679666373
C         2.5588461609    0.4943758411   -4.2944612962
C         3.6678551953    0.4287266001   -5.2479356274
C         5.0371108479    0.3920998854   -5.1624196835
H         5.5495734269    0.4083389328   -4.2082899211
C         5.7901629923    0.3319423993   -6.3581717662
H         6.8702703103    0.3032256266   -6.2876746009
C         5.2054290344    0.3083730050   -7.6041045945
H         5.8251500875    0.2623562950   -8.4914853821
C         3.0815233047    0.4032701589   -6.5301964680
C         3.7954342800    0.3444856392   -7.7247093772
C         1.6737371166    0.4469246037   -6.4551012158
C         0.9535968963    0.4309770180   -7.6247417785
H        -0.1290703394    0.4634823378   -7.6283607824
C         1.6545837075    0.3712809902   -8.8510899006
H         1.0843525814    0.3592995716   -9.7715959436
C         3.0284804018    0.3288457971   -8.9167517927
H         3.5222691028    0.2841033199   -9.8799485118
C         1.3396996027    0.5040054168   -5.0375526710
C         0.1305464903    0.5539629437   -4.3868714409
H        -0.7927065947    0.5500782463   -4.9583717752
C         0.0707673077    0.6092286109   -2.9809313582
C         2.6061605721    0.5659534789    0.0838079027
C         2.9907637051   -0.6745925827    0.6601870626
C         4.1925936749   -0.7870680536    1.3153907876
H         4.4976055786   -1.7450810499    1.7183634775
C         5.0711117097    0.3117908981    1.3910025321
C         4.6990174694    1.5446203369    0.8167139840
H         5.3570978216    2.3996161878    0.9121100187
C         3.4822675562    1.6797401634    0.1933308904
N         6.2862026262    0.1753371026    2.0084394214
C         6.4372736442   -0.7057792743    3.0983904005
C         7.5474851173   -1.5451681768    3.1697663752
H         8.2947463453   -1.5306676828    2.3870375619
C         7.6679591676   -2.4194108725    4.2348869266
H         8.5205482211   -3.0828521008    4.2849388468
C         6.6941779704   -2.4587505230    5.2251749163
H         6.7931391212   -3.1471167789    6.0535402297
C         5.5953424532   -1.6133327902    5.1530469830
H         4.8413297797   -1.6327004449    5.9279926517
C         5.4626379308   -0.7321536926    4.0952347904
H         4.6159644449   -0.0593097325    4.0475447563
C         7.4038748072    0.8945032967    1.5406089386
C         8.2733470817    1.4980821659    2.4459856680
H         8.0842113770    1.4324224352    3.5094557733
C         9.3635043137    2.2024877246    1.9683792380
H        10.0340711252    2.6845295875    2.6665244567
C         9.5903770726    2.3040987265    0.6012525304
H        10.4442244524    2.8580910847    0.2354394484
C         8.7245350704    1.6924986073   -0.2955138816
H         8.9059325879    1.7581323219   -1.3596078245
C         7.6318485153    0.9823498279    0.1673900615
H         6.9681260083    0.4831191366   -0.5271074990
C         2.1322738804   -1.9011707242    0.5033135113
H         2.3281444705   -2.5831886136    1.3343836934
H         1.0786692532   -1.6271603375    0.5674211902
C         3.0688301323    3.0249468633   -0.3361132313
H         2.5726770739    2.9042576603   -1.3009082946
H         3.9587620164    3.6321000661   -0.5178801473
C         2.3860638838   -2.6261268205   -0.8182433789
H         2.1441029374   -1.9950066319   -1.6723356264
H         3.4287970664   -2.9339163315   -0.9085247051
H         1.7655755957   -3.5198233946   -0.8831597855
C         2.1339865551    3.7613878543    0.6215224722
H         1.2121777913    3.2040123018    0.7835127125
H         2.6074820148    3.9247486881    1.5905953693
H         1.8611618256    4.7338139696    0.2122027537
C        -2.6439656540    0.5603225987   -3.0645462570
C        -3.3086173850   -0.6682152514   -3.2060414448
C        -4.5282924462   -0.7437846621   -3.8668482740
H        -5.0389739014   -1.6980742707   -3.9400387750
C        -5.1043428128    0.3862429608   -4.4290396768
C        -4.4398425577    1.5998451833   -4.3256463558
H        -4.8789749322    2.4872165440   -4.7693085072
C        -3.2333407909    1.6956136285   -3.6411413297
N        -6.3596724211    0.3126238585   -5.0751926083
C        -7.3643802665    1.2229359051   -4.7131551511
C        -8.2165770155    1.7587954269   -5.6793834919
H        -8.0973291781    1.4745272695   -6.7172154318
C        -9.2120372961    2.6508053917   -5.3170192307
H        -9.8638967035    3.0558037111   -6.0806865370
C        -9.3649432742    3.0409486957   -3.9936973171
H       -10.1387661713    3.7441390742   -3.7157436607
C        -8.5105743887    2.5189102553   -3.0329122058
H        -8.6183702336    2.8092519119   -1.9956625185
C        -7.5242528326    1.6113630793   -3.3832235030
H        -6.8720358911    1.2004184355   -2.6235321069
C        -6.6375444276   -0.7431803935   -5.9526652626
C        -7.8878236205   -1.3649031109   -5.9570289564
H        -8.6571519317   -1.0354002990   -5.2707544417
C        -8.1512694621   -2.4057391830   -6.8326371829
H        -9.1278963644   -2.8728783511   -6.8186087580
C        -7.1739813538   -2.8634336107   -7.7044961231
H        -7.3806226005   -3.6819904065   -8.3811284738
C        -5.9252947039   -2.2573198685   -7.6924025814
H        -5.1506106489   -2.5988330855   -8.3671715959
C        -5.6577208296   -1.2034119258   -6.8348731474
H        -4.6824468654   -0.7343303356   -6.8441398573
C        -2.7139680457   -1.9501294675   -2.6820120646
H        -2.0938826732   -1.7518186909   -1.8055021557
H        -3.5151348077   -2.6142309260   -2.3457899206
C        -2.6126416896    3.0594495969   -3.4917361220
H        -1.5324241820    2.9728654795   -3.3573124308
H        -2.7616864738    3.6323519207   -4.4113152071
C        -1.8811955902   -2.6661050513   -3.7438089612
H        -1.0516574088   -2.0419866638   -4.0766544324
H        -1.4632001878   -3.5957136930   -3.3542989881
H        -2.4863580793   -2.9118699203   -4.6180210464
C        -3.2124872549    3.8276212332   -2.3159941747
H        -3.0368629890    3.3024985514   -1.3767733212
H        -2.7728438350    4.8222587637   -2.2288854322
H        -4.2907084024    3.9460464658   -2.4350045324
