  140
FINAL HEAT OF FORMATION = -3084.697093
 C    -0.189116     0.912991     0.373333
 C    -0.194474     0.861142     1.782975
 H     0.753910     0.823010     2.309492
 C    -1.377384     0.848574     2.485108
 C    -2.613989     0.879587     1.776718
 C    -2.634521     0.925908     0.408153
 H    -3.588497     0.938682    -0.112852
 C    -1.432242     0.953275    -0.329347
 C    -3.701648     0.844349     2.747098
 C    -5.071078     0.851426     2.667832
 H    -5.587253     0.892814     1.716162
 C    -3.096252     0.791303     4.016347
 C    -3.806425     0.742899     5.211599
 C    -1.689132     0.791908     3.912769
 C    -0.961905     0.740761     5.073751
 H     0.120651     0.737428     5.067767
 C    -5.817186     0.804184     3.866239
 H    -6.898340     0.810018     3.805603
 C    -5.218403     0.751013     5.103754
 H    -5.830108     0.715545     5.997018
 C    -1.654886     0.690817     6.306264
 H    -1.075171     0.650501     7.219475
 C    -3.027566     0.691157     6.391807
 H    -3.510263     0.651768     7.360528
 B    -1.437536     0.976783    -1.855062
 C    -0.128940     1.023416    -2.640380
 C    -0.120635     1.069043    -4.050759
 H    -1.056172     1.099860    -4.602510
 C     1.058570     1.068898    -4.743339
 C     2.305694     1.010937    -4.057090
 C     2.317747     0.959385    -2.683772
 H     3.261719     0.897516    -2.152996
 C     1.115498     0.970913    -1.944889
 C     1.321707     1.096070    -6.177519
 C     0.544790     1.148494    -7.307715
 H    -0.536590     1.192241    -7.254653
 C     2.720899     1.048033    -6.321204
 C     3.373616     1.045651    -7.551456
 C     3.365135     0.997856    -5.066902
 C     4.736074     0.945070    -5.054792
 H     5.295982     0.906832    -4.128779
 C     1.181479     1.148682    -8.568993
 H     0.568398     1.191357    -9.460726
 C     2.549649     1.097896    -8.702000
 H     2.996612     1.099266    -9.688820
 C     5.427973     0.941760    -6.288844
 H     6.509538     0.899948    -6.270952
 C     4.786463     0.989249    -7.504509
 H     5.361508     0.983837    -8.422440
 B     1.135079     0.875739    -0.408517
 C     2.519048     0.654220     0.314337
 C     2.899082    -0.641518     0.695420
 C     4.168827    -0.873538     1.208745
 H     4.467800    -1.881744     1.474957
 C     5.070610     0.167436     1.365857
 C     4.688499     1.457458     1.027846
 H     5.393062     2.271208     1.159617
 C     3.428911     1.705930     0.497104
 N     6.390672    -0.085842     1.811480
 C     6.590913    -0.829665     2.977267
 C     7.648466    -1.733652     3.097196
 H     8.340169    -1.870311     2.276470
 C     7.810424    -2.472736     4.257158
 H     8.636258    -3.169515     4.324950
 C     6.919284    -2.347401     5.311679
 H     7.044738    -2.934692     6.211264
 C     5.860297    -1.458887     5.190219
 H     5.152375    -1.344887     6.001216
 C     5.698110    -0.700959     4.044390
 H     4.868835    -0.009835     3.968032
 C     7.439417     0.221191     0.932406
 C     8.657686     0.702129     1.412018
 H     8.798053     0.835243     2.476927
 C     9.680251     1.015476     0.532703
 H    10.617853     1.389642     0.923298
 C     9.504741     0.876373    -0.836767
 H    10.302853     1.132411    -1.520604
 C     8.290230     0.409570    -1.316568
 H     8.136805     0.291380    -2.381867
 C     7.267439     0.075934    -0.444962
 H     6.327458    -0.296198    -0.831965
 C     1.987966    -1.825260     0.476428
 H     0.946539    -1.535503     0.629615
 H     2.203162    -2.589830     1.227697
 C     3.041909     3.122406     0.157854
 H     2.465313     3.140946    -0.770263
 H     3.942720     3.711611    -0.032208
 C     2.138264    -2.434933    -0.916726
 H     1.901908    -1.708094    -1.693478
 H     3.157690    -2.783488    -1.087717
 H     1.468686    -3.287808    -1.042632
 C     2.225994     3.785341     1.265179
 H     1.290195     3.253783     1.437823
 H     2.779132     3.801491     2.205095
 H     1.977018     4.814835     1.003984
 C    -2.771828     0.791144    -2.685586
 C    -3.272033    -0.527283    -2.901325
 C    -4.333150    -0.736833    -3.741403
 H    -4.715668    -1.740565    -3.877662
 C    -4.955217     0.340739    -4.407981
 N    -5.966461     0.101219    -5.289289
 C    -4.502143     1.656872    -4.161191
 H    -4.956339     2.486296    -4.688593
 C    -3.441214     1.880919    -3.321786
 C    -6.081455    -1.152825    -5.939020
 C    -7.309539    -1.805730    -5.956211
 H    -8.166536    -1.364249    -5.464540
 C    -7.420477    -3.030082    -6.591354
 H    -8.371556    -3.544943    -6.594861
 C    -6.317007    -3.600332    -7.211266
 H    -6.408825    -4.558201    -7.705049
 C    -5.097352    -2.939212    -7.200685
 H    -4.237811    -3.373986    -7.692209
 C    -4.974204    -1.712495    -6.570299
 H    -4.026989    -1.188520    -6.572813
 C    -6.942120     1.078900    -5.595690
 C    -7.284311     1.310690    -6.924418
 H    -6.783058     0.768818    -7.715850
 C    -8.260731     2.243786    -7.223003
 H    -8.520834     2.431836    -8.255742
 C    -8.898880     2.939428    -6.204974
 H    -9.663006     3.666759    -6.443214
 C    -8.560543     2.696583    -4.881603
 H    -9.065752     3.225842    -4.085316
 C    -7.586312     1.763597    -4.569661
 H    -7.337590     1.554221    -3.537280
 C    -2.618446    -1.725941    -2.272336
 H    -2.116291    -1.441371    -1.348778
 H    -3.388025    -2.453558    -2.000579
 C    -2.976870     3.288626    -3.087808
 H    -1.886569     3.314960    -3.046290
 H    -3.275836     3.915851    -3.931229
 C    -1.616821    -2.375027    -3.227968
 H    -0.838195    -1.671718    -3.521034
 H    -1.131593    -3.226493    -2.751410
 H    -2.109214    -2.733120    -4.134137
 C    -3.553764     3.860958    -1.794319
 H    -3.228649     3.287042    -0.927546
 H    -3.220047     4.888223    -1.651664
 H    -4.644586     3.860993    -1.815132
