92
 Final energy is   -2123.80112297555     
C         0.0187710286    0.4692522743    0.0847392772
C         0.0136981136    0.3407723836    1.4788427659
H         0.9542942601    0.2328494325    2.0082213819
C        -1.1867064789    0.3455855735    2.1709082371
C        -2.4005332669    0.4813726107    1.4630946736
C        -2.4081307342    0.6010106213    0.0869852988
H        -3.3453029721    0.6918951687   -0.4520547415
C        -1.2045962579    0.5968323813   -0.6169015700
C        -3.5033894856    0.4482791028    2.4167317939
C        -4.8671503256    0.5309455375    2.3187784071
H        -5.3661698702    0.6565153752    1.3656595800
C        -2.9198086504    0.2860349945    3.6842394246
C        -3.6471482800    0.1966756435    4.8647244884
C        -1.5158782593    0.2172025299    3.5945903520
C        -0.8057896841    0.0492113599    4.7524757931
H         0.2749092409   -0.0155289923    4.7561150260
C        -5.6332540486    0.4473847890    3.5041199523
H        -6.7110647220    0.5125877057    3.4302595183
C        -5.0554616906    0.2845779073    4.7413849635
H        -5.6815386810    0.2229906143    5.6230237652
C        -1.5154236113   -0.0446837459    5.9743333476
H        -0.9508143158   -0.1781791386    6.8876072222
C        -2.8869000704    0.0249960608    6.0449340021
H        -3.3831494124   -0.0535555687    7.0043145197
B         1.3605539729    0.4544088644   -0.7047703082
B        -1.2203185697    0.7145335942   -2.1665688397
C         0.1256308896    0.7381880134   -2.9413575306
C         0.1194210072    0.8584154165   -4.3306057352
H        -0.8232272492    0.9498604796   -4.8592206071
C         1.3111652646    0.8466111578   -5.0272727655
C         2.5423365215    0.7179571540   -4.3488486883
C         2.5568763593    0.6037396026   -2.9693206094
H         3.4955605304    0.4980262884   -2.4364980724
C         1.3543266719    0.6111537042   -2.2531514652
C         3.6093214705    0.7087374296   -5.3567478952
C         4.9740529421    0.5956192555   -5.3402692719
H         5.5285560919    0.4931210093   -4.4159952166
C         2.9698628176    0.8306432527   -6.6059148819
C         3.6235549553    0.8412683347   -7.8335467767
C         1.5741394664    0.9205272304   -6.4622692904
C         0.7982607562    1.0299200201   -7.5868414874
H        -0.2813488668    1.0996081804   -7.5336435179
C         5.6705489271    0.6079711667   -6.5732749801
H         6.7486825233    0.5175139010   -6.5557893691
C         5.0324848183    0.7250626318   -7.7854373295
H         5.6093377200    0.7249730752   -8.7022000923
C         1.4371385516    1.0474338423   -8.8487784517
H         0.8258586884    1.1329886380   -9.7378492410
C         2.8025114579    0.9559656707   -8.9819536651
H         3.2494038116    0.9691154906   -9.9685898694
C        -2.5768527956    0.7778860480   -2.9585852489
C        -3.1751870985   -0.3963328584   -3.4180133736
C        -4.3616093761   -0.3514482901   -4.1470662569
H        -4.7947548704   -1.2832092097   -4.4881991507
C        -4.9650507747    0.8670753712   -4.4256329241
O        -6.1132087744    1.0090593132   -5.1213291459
C        -4.3733175886    2.0423321387   -3.9715969470
H        -4.8507592961    2.9890956148   -4.1945348767
C        -3.1939002278    2.0039926706   -3.2475159506
C        -6.7503409880   -0.1432822559   -5.6038787581
H        -7.6470058897    0.1904857220   -6.1221565256
H        -6.1269894090   -0.6985490636   -6.3126995690
H        -7.0477980346   -0.8230582353   -4.7986396432
C        -2.5323597129   -1.7261913091   -3.1360169432
H        -3.1298062417   -2.5555187853   -3.5142662441
H        -1.5454057045   -1.7964641989   -3.5990594130
H        -2.3947128472   -1.8843527873   -2.0642213959
C        -2.5623798089    3.2817078525   -2.7721786028
H        -3.1498758317    4.1550433923   -3.0530744830
H        -1.5622587322    3.4092662273   -3.1927198560
H        -2.4559249338    3.2916254171   -1.6853311625
C         2.7193938554    0.2663272827    0.0486536332
C         3.4280839583    1.3685799579    0.5220825690
C         4.6445438450    1.1974242870    1.1799050955
H         5.1692074146    2.0745904873    1.5364853752
C         5.1612464834   -0.0781017074    1.3674530927
O         6.3281762394   -0.3428214871    1.9927231535
C         4.4566800251   -1.1819369606    0.8936691364
H         4.8694761064   -2.1721385903    1.0460948833
C         3.2474990366   -1.0181688243    0.2401632888
C         7.0682112732    0.7304192382    2.5071315140
H         7.9558635828    0.3037227628    2.9697338042
H         6.5151838424    1.2901177772    3.2688900977
H         7.3860836161    1.4297854632    1.7267697813
C         2.4946442128   -2.2139423313   -0.2742644314
H         2.9995467822   -3.1483452401   -0.0315579848
H         2.3806100328   -2.1740591113   -1.3601489917
H         1.4888475955   -2.2642698242    0.1493804295
C         2.8750563338    2.7509033318    0.3106917735
H         3.5144955304    3.5184684110    0.7457638931
H         2.7687745373    2.9767435147   -0.7529414717
H         1.8841855279    2.8573494232    0.7582620074
