96
	Energy:     322.1679092
C         -8.55409        3.80579        0.49876
C         -8.71645        2.64891        1.31182
B         -7.74929        1.39698        1.10884
C         -6.55820        1.51515        0.07004
C         -6.50530        2.62645       -0.81854
B         -7.72477        3.70532       -0.83051
C         -5.40516        2.73747       -1.73184
C         -4.41789        1.74844       -1.71622
C         -4.48652        0.67812       -0.84089
C         -5.54018        0.53103        0.04808
C         -9.44894        4.89812        0.60162
C        -10.50112        4.80256        1.47753
C        -10.70387        3.66456        2.23671
C         -9.81559        2.58727        2.19909
H         -9.39514        5.75171       -0.06678
C         -7.95118        0.05659        1.93382
C         -7.09945        5.20661       -1.17700
C         -8.38171       -1.12535        1.27076
C         -8.56124       -2.30506        2.00756
C         -8.31465       -2.33297        3.38356
C         -7.88425       -1.17378        4.03608
C         -7.69915        0.02405        3.32892
C         -7.19375        1.23895        4.07222
C         -8.68546       -1.14284       -0.21088
H         -8.89731       -3.20609        1.50773
C         -8.50537       -3.59982        4.16534
H         -7.68703       -1.20842        5.10085
H         -6.22755        1.56782        3.63349
H         -7.02291        1.02179        5.14724
H         -7.91855        2.07257        4.01427
H         -9.48728       -0.40853       -0.43807
H         -9.03483       -2.14161       -0.55025
H         -7.78084       -0.89018       -0.79846
H         -8.84781       -4.43483        3.51740
H         -9.26592       -3.43831        4.95786
H         -7.54461       -3.89540        4.63680
C         -6.23902        5.88274       -0.23346
C         -5.72914        7.16072       -0.53565
C         -6.02817        7.78573       -1.74415
C         -6.83468        7.12882       -2.67499
C         -7.37113        5.85372       -2.40829
C         -8.20413        5.19151       -3.46239
C         -5.84222        5.28368        1.10069
H         -5.09023        7.67454        0.17756
C         -5.48379        9.15709       -2.05335
H         -7.04495        7.61688       -3.61824
H         -8.29546        5.81220       -4.37360
H         -9.22465        5.02330       -3.07142
H         -7.72664        4.22665       -3.74424
H         -6.72815        5.10443        1.73652
H         -5.17779        5.96084        1.68421
H         -5.28134        4.34048        0.94904
H         -4.86333        9.55999       -1.22274
H         -6.32371        9.86385       -2.22361
H         -4.85377        9.12111       -2.96703
C         -3.19025        1.58228       -2.50546
C        -11.97831        3.84064        2.92995
C        -12.72299        3.01806        3.76977
C         -1.37089        1.86849       -4.06358
C         -0.74621        0.69753       -3.55078
C         -1.37016       -0.02668       -2.51636
C        -14.42759        4.80021        3.88515
C        -13.96276        3.50610        4.25154
H        -14.56308        2.88547        4.90184
H          0.20281        0.36968       -3.95528
C         -2.57568        0.44917       -2.04460
H         -5.56318       -0.32171        0.71398
C         -2.60650        2.32038       -3.53528
H         -0.89510        2.42467       -4.86039
H         -3.08249        3.21366       -3.91689
H         -5.31463        3.56186       -2.43293
C         -3.29637       -0.14671       -1.04948
C         -0.85207       -1.19352       -1.91893
C         -1.58122       -1.83244       -0.87778
C         -2.82191       -1.30825       -0.43859
H         -1.18292       -2.72437       -0.41209
H         -3.37913       -1.78682        0.35652
H        -10.01274        1.70155        2.78504
H        -12.36781        2.03158        4.03506
C        -12.45806        5.07410        2.57657
C        -11.61811        5.71422        1.71455
C        -11.93764        6.98957        1.23903
C        -13.14390        7.58430        1.68660
C        -14.00690        6.88797        2.57699
C        -13.65224        5.59856        3.02303
H        -13.41343        8.57544        1.34356
H        -14.93042        7.34860        2.90467
H        -11.28263        7.51224        0.55320
H        -15.37672        5.16026        4.26016
H          0.09703       -1.60135       -2.24217
N         -8.92225        3.10376       -1.60833
C         -9.99769        2.67279       -1.86072
C        -11.37405        2.11624       -2.18518
H        -11.30045        1.04725       -2.46378
H        -11.82159        2.65684       -3.04736
H        -12.15481        2.15048       -1.37137
