104
 Final energy is   -2280.65517374352     
C         0.0322788665   -0.4095767733    0.0827641986
C         0.0274164269   -0.3951676200    1.4953378423
H         0.9736653962   -0.4025939845    2.0267687224
C        -1.1546807452   -0.3676929599    2.2006239463
C        -2.3938863789   -0.3500827016    1.4926330108
C        -2.4171828498   -0.3619852168    0.1227068095
H        -3.3732115643   -0.3444662464   -0.3934301106
C        -1.2156567487   -0.3932066784   -0.6168325136
C        -1.4639725026   -0.3468042879    3.6315739870
C        -0.7349947623   -0.3491618983    4.7948661348
H         0.3477560149   -0.3699540329    4.7911384746
C        -2.8725348661   -0.3185756347    3.7333391847
C        -3.5827266412   -0.2928892965    4.9305353310
C        -3.4813582868   -0.3189248541    2.4628756571
C        -4.8519910565   -0.2923174531    2.3817209601
H        -5.3693941782   -0.2906618816    1.4296394514
C        -1.4295415329   -0.3233335271    6.0286391539
H        -0.8500877756   -0.3252733371    6.9430281645
C        -2.8036501257   -0.2959851071    6.1132917847
H        -3.2869891375   -0.2766780625    7.0824397914
C        -5.5963155445   -0.2663645625    3.5834859801
H        -6.6772478472   -0.2455403403    3.5229626409
C        -4.9960395290   -0.2663689929    4.8231586483
H        -5.6067730859   -0.2457174144    5.7176496420
B        -1.2345943678   -0.3931407155   -2.1441832365
C         0.0728281978   -0.3936887718   -2.9327364908
C         0.0672051985   -0.4027621132   -4.3433699650
H        -0.8733969273   -0.3918870545   -4.8869243555
C         1.2423371314   -0.4289508371   -5.0451474825
C         2.4967125616   -0.4524228144   -4.3660711711
C         2.5204768144   -0.4473746053   -2.9906497956
H         3.4697747728   -0.4745285026   -2.4661203645
C         1.3229845676   -0.4157712837   -2.2418735213
C         1.4935007813   -0.4475778288   -6.4819178906
C         0.7046689963   -0.4401959087   -7.6064472615
H        -0.3767526900   -0.4119404155   -7.5467819390
C         2.8926423194   -0.4845177447   -6.6348565486
C         3.5356805387   -0.5161162720   -7.8710671941
C         3.5491316857   -0.4894235076   -5.3851879462
C         4.9217660559   -0.5279679318   -5.3829406988
H         5.4913971542   -0.5355572482   -4.4621007153
C         1.3326431843   -0.4707968216   -8.8732772877
H         0.7108003873   -0.4649345596   -9.7597863308
C         2.7015355603   -0.5079657759   -9.0168961503
H         3.1410409572   -0.5312082335  -10.0068704536
C         5.6036913089   -0.5598770478   -6.6237750379
H         6.6857964324   -0.5902702976   -6.6135323961
C         4.9504870727   -0.5547177839   -7.8356762831
H         5.5168069527   -0.5810833207   -8.7588273003
B         1.3591747351   -0.4323065928   -0.7017475307
C        -2.6078982718   -0.4166099140   -2.9300809237
C        -3.3223319413    0.7947827961   -3.2088135187
C        -4.4886896322    0.7496544307   -3.9139147504
H        -5.0514392516    1.6507840185   -4.1280825865
C        -4.9955086542   -0.4892657451   -4.3949466687
O        -6.1078406486   -0.4114450546   -5.0639945410
C        -4.3051873597   -1.6932724551   -4.1381210506
H        -4.6836600973   -2.6377749105   -4.5073404337
C        -3.1477695869   -1.6650820306   -3.4108515500
C        -6.7327995170   -1.5784737999   -5.6106824024
H        -7.6331844875   -1.2263554310   -6.1025542823
H        -6.9960594412   -2.2809333058   -4.8206311266
H        -6.0804173467   -2.0593071130   -6.3389588776
C        -2.7785226371    2.1234351761   -2.7724575183
H        -2.1924901021    2.0060596587   -1.8600833786
H        -3.6101869278    2.7883523938   -2.5305995740
C        -2.4636009039   -2.9604038413   -3.0913721476
H        -1.3894175495   -2.8026120419   -2.9906068459
H        -2.6082273837   -3.6576603594   -3.9189428801
C        -1.9167656701    2.7617117845   -3.8614470910
H        -1.0565102131    2.1386799474   -4.1049887740
H        -1.5428890228    3.7295471602   -3.5286108166
H        -2.4909028219    2.9173457647   -4.7755366935
C        -3.0152742669   -3.5784369669   -1.8051018775
H        -2.8730246208   -2.9150189325   -0.9528358560
H        -2.4998306918   -4.5136833991   -1.5894250020
H        -4.0807031425   -3.7919261252   -1.8964165002
C         2.7440907025   -0.4876613918    0.0565809394
C         3.5184609485    0.6635380955    0.2368271452
C         4.7379193616    0.6131754860    0.9146893460
H         5.3021210350    1.5301203969    1.0359885789
C         5.2066779354   -0.5925328886    1.4189121592
O         6.3721452631   -0.7414985060    2.0884911869
C         4.4482953425   -1.7462937311    1.2388793469
H         4.8187237240   -2.6879516952    1.6307154202
C         3.2339518868   -1.7017439439    0.5703719865
C         7.1624194442    0.4018653297    2.3150143342
H         8.0355993551    0.0717796283    2.8737802452
H         7.4997056109    0.8630422957    1.3818761934
H         6.6356096638    1.1577169671    2.9052038933
C         3.0295447924    2.0050956694   -0.2483994641
H         2.4729909220    1.8883013459   -1.1811224457
H         3.8848314034    2.6447418245   -0.4820578325
C         2.4787549889   -2.9918563455    0.3662166591
H         1.4027438567   -2.8096521258    0.4136412804
H         2.7079722921   -3.6812266650    1.1829892906
C         2.8139868380   -3.6643586219   -0.9641004950
H         2.5495867657   -3.0255461093   -1.8070394426
H         3.8798318205   -3.8858469704   -1.0354990372
H         2.2688350293   -4.6030959087   -1.0749326753
C         2.1420962392    2.7080067194    0.7770251974
H         1.2484546382    2.1209581721    0.9906914199
H         2.6727367020    2.8619274923    1.7177749991
H         1.8187177016    3.6834786285    0.4105288928
