104
 Final energy is   -2280.62168720232     
C         0.0656302141   -0.4175363784    0.0823942786
C         0.0618247807   -0.4003991173    1.4945998492
H         1.0091364664   -0.3961750457    2.0219559106
C        -1.1205392204   -0.3875879480    2.1871760791
C        -2.3775118286   -0.3892234162    1.4626808874
C        -2.4012283362   -0.4013845349    0.0934564799
H        -3.3451726297   -0.4013565694   -0.4402468000
C        -1.2040787209   -0.4109840236   -0.6369105979
C        -1.4387208428   -0.3696299134    3.6060380740
C        -0.7136515616   -0.3597802386    4.7719283116
H         0.3686128316   -0.3653163450    4.7706295187
C        -2.8485221973   -0.3617882332    3.6969662936
C        -3.5650004923   -0.3443624925    4.8905394086
C        -3.4550993033   -0.3732531528    2.4232191330
C        -4.8269647219   -0.3668640796    2.3333472426
H        -5.3360325055   -0.3744167369    1.3777506983
C        -1.4141571004   -0.3420529376    5.9974720586
H        -0.8425081045   -0.3341788121    6.9160497745
C        -2.7895848908   -0.3343509935    6.0725935059
H        -3.2760704069   -0.3205693546    7.0398838188
C        -5.5720761954   -0.3496983815    3.5287328996
H        -6.6525149365   -0.3446749130    3.4666411544
C        -4.9751822339   -0.3386533837    4.7713515994
H        -5.5923110482   -0.3252887828    5.6611416242
B        -1.2558463329   -0.4067547466   -2.1685954697
C         0.0758646047   -0.4223907206   -2.9241400639
C         0.0734303195   -0.4254046027   -4.3267500606
H        -0.8721793087   -0.4013644978   -4.8564459341
C         1.2523291472   -0.4639207421   -5.0200943860
C         2.5241209076   -0.5044529598   -4.3276550523
C         2.5508396423   -0.4956815275   -2.9589523270
H         3.4936658238   -0.5296350949   -2.4254586867
C         1.3487052281   -0.4504006033   -2.2183941521
C         1.5097678194   -0.4831556431   -6.4425234747
C         0.7209492312   -0.4635461871   -7.5683709013
H        -0.3590561790   -0.4199686559   -7.5068042601
C         2.9106331490   -0.5396128967   -6.5901845625
C         3.5550512371   -0.5800441121   -7.8252762450
C         3.5683414386   -0.5550213114   -5.3413196701
C         4.9400979449   -0.6146968942   -5.3345001852
H         5.5049502749   -0.6324726839   -4.4116225072
C         1.3509391677   -0.5018825923   -8.8285990713
H         0.7338305333   -0.4863643601   -9.7175806700
C         2.7205948511   -0.5591060525   -8.9678050606
H         3.1590426297   -0.5881409531   -9.9577354043
C         5.6200783382   -0.6558546192   -6.5714315955
H         6.7010307167   -0.7032202766   -6.5626973325
C         4.9664787343   -0.6398337878   -7.7833854064
H         5.5353322295   -0.6744135412   -8.7043052481
B         1.3937577774   -0.4422415615   -0.6857571778
C        -2.6316542578   -0.4007987198   -2.9489174228
C        -3.3452077309    0.7930024922   -3.1635958662
C        -4.5449700879    0.7883322379   -3.8559817424
H        -5.0868106633    1.7136363912   -4.0172860144
C        -5.0729528112   -0.3955579467   -4.3594864173
O        -6.2473007486   -0.2942460865   -5.0201197444
C        -4.3817128352   -1.5805177233   -4.1602087974
H        -4.7625857517   -2.5226131774   -4.5368167354
C        -3.1744070965   -1.5841042846   -3.4618059926
C        -6.8219988175   -1.4614801739   -5.5417571731
H        -7.7502157074   -1.1632596258   -6.0252426543
H        -7.0568210339   -2.1948661480   -4.7630070189
H        -6.1825029777   -1.9442660292   -6.2883498230
C        -2.7969353285    2.1204949905   -2.7089578324
H        -2.2003254382    1.9978532423   -1.8022154680
H        -3.6232753966    2.7841426975   -2.4410163338
C        -2.5105534480   -2.9181740120   -3.2298688109
H        -1.4318536020   -2.7931722573   -3.1162490476
H        -2.6501465605   -3.5540595286   -4.1085943526
C        -1.9465336405    2.7858265483   -3.7886518655
H        -1.0814422745    2.1728157921   -4.0427193827
H        -1.5781108544    3.7572844770   -3.4567874474
H        -2.5231622723    2.9383630894   -4.7017252588
C        -3.0660563039   -3.6295787852   -1.9983825659
H        -2.8953445995   -3.0407194422   -1.0968526834
H        -2.5903152781   -4.6007526557   -1.8561596313
H        -4.1409099601   -3.7922867342   -2.0884205078
C         2.7743879500   -0.4671365495    0.0729473144
C         3.5374839203    0.6957794557    0.2166049846
C         4.7570780558    0.6738946900    0.8928556978
H         5.3131510323    1.5987502470    0.9861148615
C         5.2355422921   -0.5119024459    1.4314664290
O         6.4017734998   -0.6335385816    2.1025034635
C         4.4870773156   -1.6758841372    1.2880815831
H         4.8700921470   -2.5990624645    1.7084874891
C         3.2728404580   -1.6620040461    0.6223383680
C         7.1790763408    0.5152942335    2.2994946497
H         8.0536632970    0.2068079700    2.8688346043
H         7.5181683742    0.9568921102    1.3562358307
H         6.6477012690    1.2851662343    2.8691656756
C         3.0355948158    2.0179826438   -0.3067200787
H         2.5012258010    1.8765759097   -1.2491929214
H         3.8847167176    2.6667414885   -0.5382002915
C         2.5260396793   -2.9624463169    0.4582616827
H         1.4487803519   -2.7945706266    0.5319878128
H         2.7828881550   -3.6342015890    1.2813690618
C         2.8337291570   -3.6555153397   -0.8674199705
H         2.5269296973   -3.0449369482   -1.7167767501
H         3.9015746587   -3.8520033401   -0.9690959260
H         2.3081777833   -4.6086320663   -0.9407276187
C         2.1163648478    2.7271689217    0.6850299955
H         1.2217084210    2.1373410226    0.8858626680
H         2.6209499184    2.8972057521    1.6368897216
H         1.7932582767    3.6943097456    0.2975732124
104
 Final energy is   -2280.63165447434     
C         0.0237646685   -0.4039072084    0.0777081958
C         0.0197652454   -0.3905064087    1.4890249478
H         0.9677570213   -0.4023823374    2.0169896772
C        -1.1618126605   -0.3590962117    2.1949255468
C        -2.3998691812   -0.3340878634    1.4877267039
C        -2.4235318387   -0.3433451441    0.1189621830
H        -3.3803832189   -0.3200430249   -0.3963047788
C        -1.2221178004   -0.3787898744   -0.6214241364
C        -1.4710757827   -0.3413178729    3.6251845497
C        -0.7426873921   -0.3515100818    4.7877025546
H         0.3397636673   -0.3775612505    4.7827825740
C        -2.8790133192   -0.3071166555    3.7280318349
C        -3.5886227940   -0.2828224055    4.9247317334
C        -3.4873857008   -0.3003601040    2.4581905820
C        -4.8569538248   -0.2668294821    2.3778662222
H        -5.3743382264   -0.2589370919    1.4257966706
C        -1.4363758327   -0.3273931660    6.0212734706
H        -0.8567334417   -0.3357266008    6.9354470148
C        -2.8093577290   -0.2940458028    6.1065979628
H        -3.2918021012   -0.2762839128    7.0761641205
C        -5.6014184514   -0.2416970559    3.5786564971
H        -6.6822856118   -0.2152345951    3.5188637751
C        -5.0009544279   -0.2493541427    4.8172250389
H        -5.6118312338   -0.2291762708    5.7115970368
B        -1.2347530677   -0.3814363138   -2.1478931346
C         0.0694350217   -0.3858421406   -2.9391734255
C         0.0674807769   -0.3847250445   -4.3502733807
H        -0.8716499664   -0.3591570811   -4.8969770423
C         1.2431110917   -0.4183018479   -5.0488547402
C         2.4943206570   -0.4616234772   -4.3674841422
C         2.5146352793   -0.4614486060   -2.9921256397
H         3.4604519537   -0.5018308647   -2.4624395779
C         1.3166976369   -0.4187109428   -2.2471322130
C         1.4977910547   -0.4324060532   -6.4853573430
C         0.7133070894   -0.4079732346   -7.6115460221
H        -0.3676870094   -0.3623758535   -7.5544847726
C         2.8959390473   -0.4895829563   -6.6350869138
C         3.5413425396   -0.5270342994   -7.8690550623
C         3.5479452908   -0.5100257077   -5.3837528499
C         4.9187814855   -0.5720590100   -5.3782402824
H         5.4846027833   -0.5940489207   -4.4554937284
C         1.3429760437   -0.4430911245   -8.8765590192
H         0.7241898266   -0.4234298453   -9.7650318665
C         2.7106574561   -0.5015684085   -9.0161085148
H         3.1520002140   -0.5280445847  -10.0051637901
C         5.6034636502   -0.6105255374   -6.6166362497
H         6.6848049532   -0.6597137183   -6.6034469759
C         4.9546246574   -0.5894416600   -7.8296006369
H         5.5235520141   -0.6220223386   -8.7508740861
B         1.3509944665   -0.4343362902   -0.7066118256
C        -2.6060863721   -0.4132423093   -2.9299141109
C        -3.3493191327    0.7904863139   -3.1797627531
C        -4.5196876753    0.7354747753   -3.8774305662
H        -5.1014396666    1.6291742349   -4.0705001807
C        -5.0062965037   -0.5009757450   -4.3783284617
O        -6.1308731661   -0.4303975882   -5.0386793605
C        -4.2925218841   -1.6944804757   -4.1537494322
H        -4.6557010670   -2.6385148088   -4.5387820009
C        -3.1272061537   -1.6625391044   -3.4365816369
C        -6.7322862124   -1.5972547707   -5.5976603775
H        -7.6431959456   -1.2587396824   -6.0806038209
H        -6.9808172680   -2.3202322580   -4.8203104100
H        -6.0785147236   -2.0575313432   -6.3389651223
C        -2.8237768111    2.1168891661   -2.7196094419
H        -2.2599457185    1.9932603039   -1.7943526093
H        -3.6637404028    2.7775764169   -2.4940191133
C        -2.4117559326   -2.9475230711   -3.1549947727
H        -1.3347260368   -2.7786201103   -3.1418022829
H        -2.6154637498   -3.6574958552   -3.9595465050
C        -1.9341344069    2.7634138385   -3.7817850494
H        -1.0625091788    2.1474549629   -4.0001103029
H        -1.5749657436    3.7310241084   -3.4332676191
H        -2.4809550913    2.9213922730   -4.7123035625
C        -2.8517517215   -3.5506914191   -1.8187765136
H        -2.6259875552   -2.8835315533   -0.9884897450
H        -2.3244968397   -4.4875240602   -1.6430198310
H        -3.9224239322   -3.7580514262   -1.8108040970
C         2.7336778236   -0.4914618232    0.0516198322
C         3.5107511961    0.6582091985    0.2233486052
C         4.7292051303    0.6071042870    0.9014695593
H         5.2961106228    1.5230955523    1.0167650195
C         5.1931599736   -0.5964220704    1.4133525337
O         6.3585361505   -0.7458904230    2.0840630949
C         4.4311708392   -1.7480364149    1.2417296712
H         4.8003195013   -2.6866776263    1.6408214203
C         3.2176138200   -1.7037914190    0.5740554570
C         7.1500087905    0.3925445959    2.3025758612
H         8.0227030092    0.0634741792    2.8632759560
H         7.4903301611    0.8485014090    1.3671170985
H         6.6275341109    1.1554239024    2.8888981577
C         3.0244739940    1.9973598866   -0.2707539604
H         2.4746358423    1.8772198402   -1.2070261782
H         3.8815043923    2.6354912578   -0.5032464825
C         2.4549272970   -2.9908082114    0.3796745910
H         1.3801239949   -2.8047354330    0.4394430417
H         2.6895748692   -3.6785888618    1.1963870297
C         2.7736537383   -3.6675149917   -0.9524425653
H         2.4954118646   -3.0343961465   -1.7949341631
H         3.8391624139   -3.8847403631   -1.0380360495
H         2.2305968935   -4.6089506989   -1.0514595253
C         2.1306901247    2.7044404518    0.7461635453
H         1.2329883022    2.1216131284    0.9528837621
H         2.6531960762    2.8564156211    1.6916730347
H         1.8138986775    3.6808679791    0.3762158466
104
 Final energy is   -2280.63510180769     
C         0.0250415695   -0.4037281803    0.0778105540
C         0.0209059204   -0.3908703706    1.4893074942
H         0.9686030967   -0.4032883839    2.0178161367
C        -1.1607115466   -0.3592635115    2.1951083292
C        -2.3988686102   -0.3334951187    1.4877829195
C        -2.4224284615   -0.3425984508    0.1188585387
H        -3.3791556307   -0.3189068413   -0.3965086047
C        -1.2210845110   -0.3786856888   -0.6214331556
C        -1.4700030195   -0.3418784301    3.6254691596
C        -0.7415620151   -0.3529668152    4.7880968627
H         0.3409042836   -0.3795424136    4.7833185884
C        -2.8779968481   -0.3070705405    3.7281734761
C        -3.5876953756   -0.2829796629    4.9249443516
C        -3.4863757784   -0.2996047610    2.4582100312
C        -4.8560680462   -0.2654939031    2.3777923989
H        -5.3734531915   -0.2570517042    1.4257239668
C        -1.4353822699   -0.3290592929    6.0217072452
H        -0.8557806406   -0.3380977613    6.9359170064
C        -2.8084900264   -0.2951058380    6.1069553265
H        -3.2910509150   -0.2775746891    7.0764836232
C        -5.6005290043   -0.2405053435    3.5787159609
H        -6.6813858271   -0.2136067962    3.5188201664
C        -5.0001376710   -0.2488958748    4.8174587933
H        -5.6110145144   -0.2288467101    5.7118459621
B        -1.2345046301   -0.3814119277   -2.1479889019
C         0.0700072949   -0.3851716693   -2.9388985060
C         0.0675514467   -0.3848275188   -4.3499063129
H        -0.8718504868   -0.3607569256   -4.8960688334
C         1.2430765870   -0.4173427996   -5.0489910963
C         2.4947161070   -0.4589320395   -4.3679358651
C         2.5155388919   -0.4588472811   -2.9925734165
H         3.4618538420   -0.4982522075   -2.4636748595
C         1.3176959959   -0.4173984563   -2.2470336398
C         1.4973079629   -0.4313063373   -6.4855358881
C         0.7122869437   -0.4080811086   -7.6115515908
H        -0.3687640636   -0.3642294491   -7.5542043407
C         2.8955996720   -0.4863935585   -6.6357139722
C         3.5407125110   -0.5227706146   -7.8699843368
C         3.5481717963   -0.5058146702   -5.3845826723
C         4.9192498104   -0.5655669546   -5.3794853542
H         5.4855374802   -0.5865344251   -4.4569700471
C         1.3417534631   -0.4422241307   -8.8768148109
H         0.7225865084   -0.4235473638   -9.7650500011
C         2.7096000018   -0.4985222059   -9.0169058290
H         3.1507100023   -0.5242653273  -10.0060931477
C         5.6035777179   -0.6029277018   -6.6182141484
H         6.6850174866   -0.6503032221   -6.6053908135
C         4.9541980732   -0.5828734397   -7.8310696862
H         5.5228033025   -0.6144697892   -8.7525941986
B         1.3521539217   -0.4338264185   -0.7065963753
C        -2.6064761279   -0.4136496428   -2.9302126274
C        -3.3467453602    0.7902988719   -3.1853624002
C        -4.5168305549    0.7347819845   -3.8834570019
H        -5.0968771405    1.6287839884   -4.0803327657
C        -5.0054527416   -0.5031530129   -4.3799097019
O        -6.1285028410   -0.4333299838   -5.0410487153
C        -4.2937683707   -1.6973360166   -4.1496058805
H        -4.6583391805   -2.6421674852   -4.5313682124
C        -3.1294716319   -1.6640778283   -3.4313316505
C        -6.7325915970   -1.6014990738   -5.5968390962
H        -7.6426610698   -1.2623185048   -6.0807212036
H        -6.9819999853   -2.3210151293   -4.8167473251
H        -6.0789795976   -2.0646489450   -6.3363151360
C        -2.8196082204    2.1181008341   -2.7304209798
H        -2.2522937304    1.9971698856   -1.8069239069
H        -3.6589526878    2.7789335304   -2.5031768856
C        -2.4172234146   -2.9496444459   -3.1429607291
H        -1.3401573789   -2.7819940320   -3.1207255979
H        -2.6148357846   -3.6597968248   -3.9487820812
C        -1.9346717977    2.7628865492   -3.7974294556
H        -1.0637085539    2.1468211285   -4.0182526377
H        -1.5746152771    3.7314934785   -3.4525390794
H        -2.4855507279    2.9183849249   -4.7259517602
C        -2.8691297174   -3.5520804414   -1.8105009982
H        -2.6506874934   -2.8846336346   -0.9784158451
H        -2.3438504153   -4.4890835050   -1.6297024142
H        -3.9399130453   -3.7589317653   -1.8120949816
C         2.7350669575   -0.4919114517    0.0518680223
C         3.5122516587    0.6574727651    0.2257335931
C         4.7304561343    0.6055420902    0.9045009026
H         5.2973910589    1.5213262949    1.0213977130
C         5.1941687044   -0.5987301397    1.4150797408
O         6.3591299270   -0.7489706495    2.0863165760
C         4.4321707990   -1.7501620378    1.2413567822
H         4.8007477165   -2.6896086218    1.6392543625
C         3.2189204556   -1.7049542320    0.5728272206
C         7.1509759332    0.3897227106    2.3065755006
H         8.0233529935    0.0599107442    2.8672508121
H         7.4914633795    0.8464430173    1.3716811113
H         6.6280524393    1.1516902209    2.8934794189
C         3.0264913531    1.9974582421   -0.2666636185
H         2.4758414786    1.8785456489   -1.2026041676
H         3.8837106194    2.6354078477   -0.4988601951
C         2.4566260012   -2.9918913536    0.3762230200
H         1.3817307375   -2.8058512021    0.4341911205
H         2.6900184258   -3.6804600817    1.1926226970
C         2.7775256274   -3.6674232253   -0.9559909249
H         2.5015074781   -3.0329781485   -1.7982414381
H         3.8430297395   -3.8855826698   -1.0396470416
H         2.2337572331   -4.6081985826   -1.0571918949
C         2.1336908458    2.7039570306    0.7515401828
H         1.2361769390    2.1209221575    0.9586237136
H         2.6570976420    2.8554380605    1.6966577118
H         1.8165692572    3.6805724784    0.3824029177
104
 Final energy is   -2280.64609287148     
C         0.0293270168   -0.4049529882    0.0797110268
C         0.0248032640   -0.3923901950    1.4917896999
H         0.9716541483   -0.4041294146    2.0219461118
C        -1.1570203509   -0.3616849978    2.1973024865
C        -2.3956661416   -0.3371929353    1.4896296412
C        -2.4190045086   -0.3469761129    0.1201686704
H        -3.3753056405   -0.3244341951   -0.3956488425
C        -1.2177104414   -0.3826497490   -0.6197347745
C        -1.4663177200   -0.3437936910    3.6279953579
C        -0.7376123253   -0.3534617443    4.7909792066
H         0.3449640120   -0.3790552637    4.7867158899
C        -2.8745654761   -0.3100444274    3.7302403379
C        -3.5845133861   -0.2856642452    4.9272545229
C        -3.4831204126   -0.3038598620    2.4599610993
C        -4.8532817025   -0.2710755259    2.3792029240
H        -5.3706947024   -0.2638467761    1.4271389286
C        -1.4318063670   -0.3291960012    6.0247067721
H        -0.8522877760   -0.3370664276    6.9390153412
C        -2.8054019626   -0.2963302672    6.1096853700
H        -3.2883367809   -0.2785427511    7.0790539218
C        -5.5976652795   -0.2459360271    3.5805870626
H        -6.6785308140   -0.2201571956    3.5203631930
C        -4.9973833113   -0.2528756616    4.8198524224
H        -5.6081944586   -0.2327591285    5.7143039082
B        -1.2341080431   -0.3852495959   -2.1466166701
C         0.0717549555   -0.3873293184   -2.9363722165
C         0.0675096116   -0.3920138046   -4.3471198684
H        -0.8727147138   -0.3754781768   -4.8916367503
C         1.2427468836   -0.4203898632   -5.0478100487
C         2.4959309807   -0.4519903319   -4.3678829890
C         2.5184431450   -0.4500079915   -2.9924954373
H         3.4664393101   -0.4830616018   -2.4660658240
C         1.3208478282   -0.4143641203   -2.2451298520
C         1.4952861968   -0.4359141041   -6.4844898680
C         0.7082014258   -0.4208136933   -7.6097480799
H        -0.3731034955   -0.3859204437   -7.5512292030
C         2.8941088788   -0.4803591759   -6.6362451674
C         3.5381241191   -0.5129102958   -7.8715848162
C         3.5488208098   -0.4924065242   -5.3858934306
C         4.9208235298   -0.5399266986   -5.3823702467
H         5.4889345420   -0.5539909228   -4.4607481446
C         1.3368659793   -0.4518059078   -8.8758843453
H         0.7162293334   -0.4396798573   -9.7632042026
C         2.7053404125   -0.4969277809   -9.0179227731
H         3.1455840617   -0.5203180688  -10.0075668287
C         5.6038666663   -0.5731547552   -6.6222610593
H         6.6857308967   -0.6107716061   -6.6108297282
C         4.9524039646   -0.5606286882   -7.8346200664
H         5.5198238209   -0.5884050809   -8.7570377987
B         1.3561953931   -0.4321972584   -0.7049193232
C        -2.6072607232   -0.4156790498   -2.9302208028
C        -3.3341636818    0.7910980010   -3.2022732798
C        -4.5021562832    0.7381042461   -3.9040929151
H        -5.0734681966    1.6349308344   -4.1135372129
C        -4.9999068464   -0.5024634251   -4.3880554955
O        -6.1169230726   -0.4312597226   -5.0538729410
C        -4.2991370318   -1.7008974725   -4.1390733986
H        -4.6706606643   -2.6469630187   -4.5111192860
C        -3.1389161155   -1.6672876540   -3.4155755417
C        -6.7314208584   -1.6012378571   -5.6013066881
H        -7.6367104594   -1.2572534261   -6.0902481429
H        -6.9874708194   -2.3094380968   -4.8135929420
H        -6.0780532420   -2.0752982791   -6.3335285323
C        -2.7987982965    2.1212468452   -2.7618256851
H        -2.2199895732    2.0055519397   -1.8447344230
H        -3.6344557837    2.7840091485   -2.5273929555
C        -2.4415366908   -2.9569263255   -3.1049578417
H        -1.3655990574   -2.7937738728   -3.0383448240
H        -2.6087205425   -3.6625121234   -3.9213371442
C        -1.9282708273    2.7603853443   -3.8435648469
H        -1.0618488173    2.1415085886   -4.0748727719
H        -1.5622726411    3.7303681480   -3.5086240824
H        -2.4925555063    2.9117185819   -4.7646017871
C        -2.9497184202   -3.5648574264   -1.7958034803
H        -2.7717487647   -2.8986982801   -0.9527834893
H        -2.4304597826   -4.5010586294   -1.5942881626
H        -4.0187170969   -3.7744584623   -1.8461283927
C         2.7400300016   -0.4911881083    0.0538076156
C         3.5165352957    0.6582017707    0.2335250428
C         4.7346766257    0.6050561761    0.9130290140
H         5.3008787363    1.5207716569    1.0341980713
C         5.1994582276   -0.6010831417    1.4190784748
O         6.3638917012   -0.7525502251    2.0905804077
C         4.4385791251   -1.7528383626    1.2395035605
H         4.8068688395   -2.6943939763    1.6331834659
C         3.2255739602   -1.7059842980    0.5695652370
C         7.1559529755    0.3876443311    2.3160388986
H         8.0280183215    0.0562175782    2.8759839227
H         7.4958654481    0.8473502387    1.3828082310
H         6.6312699903    1.1461771583    2.9051837421
C         3.0306915312    2.0001640669   -0.2535227384
H         2.4766639511    1.8841290009   -1.1878223929
H         3.8876576495    2.6382383227   -0.4858695972
C         2.4662752111   -2.9937244468    0.3660721932
H         1.3908331790   -2.8089920362    0.4169763292
H         2.6956152859   -3.6840203829    1.1821068009
C         2.7964100168   -3.6659992106   -0.9656061003
H         2.5281262878   -3.0278978986   -1.8077072855
H         3.8621260563   -3.8863714797   -1.0415223050
H         2.2514451723   -4.6051988672   -1.0740841213
C         2.1415472246    2.7045970821    0.7693477020
H         1.2454453242    2.1201647605    0.9791548008
H         2.6689047951    2.8557183949    1.7123823777
H         1.8220764860    3.6813125901    0.4026311784
104
 Final energy is   -2280.65517374352     
C         0.0322788665   -0.4095767733    0.0827641986
C         0.0274164269   -0.3951676200    1.4953378423
H         0.9736653962   -0.4025939845    2.0267687224
C        -1.1546807452   -0.3676929599    2.2006239463
C        -2.3938863789   -0.3500827016    1.4926330108
C        -2.4171828498   -0.3619852168    0.1227068095
H        -3.3732115643   -0.3444662464   -0.3934301106
C        -1.2156567487   -0.3932066784   -0.6168325136
C        -1.4639725026   -0.3468042879    3.6315739870
C        -0.7349947623   -0.3491618983    4.7948661348
H         0.3477560149   -0.3699540329    4.7911384746
C        -2.8725348661   -0.3185756347    3.7333391847
C        -3.5827266412   -0.2928892965    4.9305353310
C        -3.4813582868   -0.3189248541    2.4628756571
C        -4.8519910565   -0.2923174531    2.3817209601
H        -5.3693941782   -0.2906618816    1.4296394514
C        -1.4295415329   -0.3233335271    6.0286391539
H        -0.8500877756   -0.3252733371    6.9430281645
C        -2.8036501257   -0.2959851071    6.1132917847
H        -3.2869891375   -0.2766780625    7.0824397914
C        -5.5963155445   -0.2663645625    3.5834859801
H        -6.6772478472   -0.2455403403    3.5229626409
C        -4.9960395290   -0.2663689929    4.8231586483
H        -5.6067730859   -0.2457174144    5.7176496420
B        -1.2345943678   -0.3931407155   -2.1441832365
C         0.0728281978   -0.3936887718   -2.9327364908
C         0.0672051985   -0.4027621132   -4.3433699650
H        -0.8733969273   -0.3918870545   -4.8869243555
C         1.2423371314   -0.4289508371   -5.0451474825
C         2.4967125616   -0.4524228144   -4.3660711711
C         2.5204768144   -0.4473746053   -2.9906497956
H         3.4697747728   -0.4745285026   -2.4661203645
C         1.3229845676   -0.4157712837   -2.2418735213
C         1.4935007813   -0.4475778288   -6.4819178906
C         0.7046689963   -0.4401959087   -7.6064472615
H        -0.3767526900   -0.4119404155   -7.5467819390
C         2.8926423194   -0.4845177447   -6.6348565486
C         3.5356805387   -0.5161162720   -7.8710671941
C         3.5491316857   -0.4894235076   -5.3851879462
C         4.9217660559   -0.5279679318   -5.3829406988
H         5.4913971542   -0.5355572482   -4.4621007153
C         1.3326431843   -0.4707968216   -8.8732772877
H         0.7108003873   -0.4649345596   -9.7597863308
C         2.7015355603   -0.5079657759   -9.0168961503
H         3.1410409572   -0.5312082335  -10.0068704536
C         5.6036913089   -0.5598770478   -6.6237750379
H         6.6857964324   -0.5902702976   -6.6135323961
C         4.9504870727   -0.5547177839   -7.8356762831
H         5.5168069527   -0.5810833207   -8.7588273003
B         1.3591747351   -0.4323065928   -0.7017475307
C        -2.6078982718   -0.4166099140   -2.9300809237
C        -3.3223319413    0.7947827961   -3.2088135187
C        -4.4886896322    0.7496544307   -3.9139147504
H        -5.0514392516    1.6507840185   -4.1280825865
C        -4.9955086542   -0.4892657451   -4.3949466687
O        -6.1078406486   -0.4114450546   -5.0639945410
C        -4.3051873597   -1.6932724551   -4.1381210506
H        -4.6836600973   -2.6377749105   -4.5073404337
C        -3.1477695869   -1.6650820306   -3.4108515500
C        -6.7327995170   -1.5784737999   -5.6106824024
H        -7.6331844875   -1.2263554310   -6.1025542823
H        -6.9960594412   -2.2809333058   -4.8206311266
H        -6.0804173467   -2.0593071130   -6.3389588776
C        -2.7785226371    2.1234351761   -2.7724575183
H        -2.1924901021    2.0060596587   -1.8600833786
H        -3.6101869278    2.7883523938   -2.5305995740
C        -2.4636009039   -2.9604038413   -3.0913721476
H        -1.3894175495   -2.8026120419   -2.9906068459
H        -2.6082273837   -3.6576603594   -3.9189428801
C        -1.9167656701    2.7617117845   -3.8614470910
H        -1.0565102131    2.1386799474   -4.1049887740
H        -1.5428890228    3.7295471602   -3.5286108166
H        -2.4909028219    2.9173457647   -4.7755366935
C        -3.0152742669   -3.5784369669   -1.8051018775
H        -2.8730246208   -2.9150189325   -0.9528358560
H        -2.4998306918   -4.5136833991   -1.5894250020
H        -4.0807031425   -3.7919261252   -1.8964165002
C         2.7440907025   -0.4876613918    0.0565809394
C         3.5184609485    0.6635380955    0.2368271452
C         4.7379193616    0.6131754860    0.9146893460
H         5.3021210350    1.5301203969    1.0359885789
C         5.2066779354   -0.5925328886    1.4189121592
O         6.3721452631   -0.7414985060    2.0884911869
C         4.4482953425   -1.7462937311    1.2388793469
H         4.8187237240   -2.6879516952    1.6307154202
C         3.2339518868   -1.7017439439    0.5703719865
C         7.1624194442    0.4018653297    2.3150143342
H         8.0355993551    0.0717796283    2.8737802452
H         7.4997056109    0.8630422957    1.3818761934
H         6.6356096638    1.1577169671    2.9052038933
C         3.0295447924    2.0050956694   -0.2483994641
H         2.4729909220    1.8883013459   -1.1811224457
H         3.8848314034    2.6447418245   -0.4820578325
C         2.4787549889   -2.9918563455    0.3662166591
H         1.4027438567   -2.8096521258    0.4136412804
H         2.7079722921   -3.6812266650    1.1829892906
C         2.8139868380   -3.6643586219   -0.9641004950
H         2.5495867657   -3.0255461093   -1.8070394426
H         3.8798318205   -3.8858469704   -1.0354990372
H         2.2688350293   -4.6030959087   -1.0749326753
C         2.1420962392    2.7080067194    0.7770251974
H         1.2484546382    2.1209581721    0.9906914199
H         2.6727367020    2.8619274923    1.7177749991
H         1.8187177016    3.6834786285    0.4105288928
