104
 Final energy is   -2280.63088144524     
C         0.0643210507   -0.4167406684    0.0819989577
C         0.0615972944   -0.4006685920    1.4946199245
H         1.0092205899   -0.3967302304    2.0215425900
C        -1.1198000863   -0.3883339477    2.1885699514
C        -2.3811023989   -0.3896574131    1.4617392610
C        -2.4022278671   -0.4008861099    0.0922295243
H        -3.3455034261   -0.4005596143   -0.4427654276
C        -1.2037093995   -0.4105721668   -0.6365112079
C        -1.4390952123   -0.3715010579    3.6056687296
C        -0.7137059340   -0.3623966102    4.7727013044
H         0.3685861666   -0.3675363356    4.7713133589
C        -2.8492191002   -0.3642932247    3.6965117613
C        -3.5650482341   -0.3482882505    4.8895644570
C        -3.4563709578   -0.3749562073    2.4225373184
C        -4.8294976000   -0.3691848642    2.3336795648
H        -5.3390076399   -0.3762177353    1.3782952344
C        -1.4139965993   -0.3460543255    5.9978864192
H        -0.8426412867   -0.3387798322    6.9166758374
C        -2.7898673081   -0.3390110673    6.0723924631
H        -3.2768735029   -0.3263451021    7.0394475968
C        -5.5740639277   -0.3534361733    3.5291781452
H        -6.6545602729   -0.3489189320    3.4676352839
C        -4.9762593318   -0.3431658451    4.7715935103
H        -5.5925259450   -0.3308907788    5.6619926660
B        -1.2539992410   -0.4064336597   -2.1677922982
C         0.0763233816   -0.4205280238   -2.9251909026
C         0.0719912847   -0.4213475720   -4.3273918788
H        -0.8742740424   -0.3962504435   -4.8559390353
C         1.2501510023   -0.4601578768   -5.0230602412
C         2.5277747241   -0.5035201390   -4.3268271245
C         2.5522579539   -0.4962682293   -2.9580522764
H         3.4945580798   -0.5317590683   -2.4236156692
C         1.3493862843   -0.4497259801   -2.2190811319
C         1.5093807728   -0.4786567015   -6.4422235801
C         0.7208328943   -0.4571792453   -7.5703094539
H        -0.3591260006   -0.4119489211   -7.5093975508
C         2.9110887969   -0.5372376027   -6.5890031297
C         3.5556780220   -0.5780087553   -7.8232899963
C         3.5690618081   -0.5547147206   -5.3396141686
C         4.9422687692   -0.6167811853   -5.3329371459
H         5.5067747321   -0.6362499398   -4.4098899537
C         1.3516259967   -0.4958213507   -8.8293776837
H         0.7355225689   -0.4788824095   -9.7190481078
C         2.7218712654   -0.5551507959   -8.9672733338
H         3.1613823021   -0.5843786294   -9.9567090058
C         5.6217165959   -0.6581898895   -6.5692215141
H         6.7026023865   -0.7074255456   -6.5609503760
C         4.9674457176   -0.6402453890   -7.7815479078
H         5.5359984183   -0.6752303511   -8.7026344566
B         1.3915240095   -0.4413429088   -0.6867176076
C        -2.6286534181   -0.3998845028   -2.9480706283
C        -3.3387123223    0.7948492858   -3.1662646998
C        -4.5378464797    0.7899275089   -3.8595273240
H        -5.0779568215    1.7156518403   -4.0240164061
C        -5.0676618059   -0.3947691204   -4.3594777677
O        -6.2412515742   -0.2934323173   -5.0208225594
C        -4.3788812797   -1.5805555099   -4.1558720202
H        -4.7612888368   -2.5231518665   -4.5295796466
C        -3.1721025436   -1.5842032755   -3.4568726572
C        -6.8184632650   -1.4612922181   -5.5386721672
H        -7.7461231090   -1.1626673469   -6.0229006327
H        -7.0546003512   -2.1915730557   -4.7574520224
H        -6.1800325153   -1.9476004050   -6.2838507840
C        -2.7875667063    2.1223621025   -2.7150167384
H        -2.1868298235    2.0003784877   -1.8107901207
H        -3.6124112139    2.7859679495   -2.4426382787
C        -2.5098322867   -2.9181567078   -3.2195292758
H        -1.4313667408   -2.7939594487   -3.1014100701
H        -2.6448186250   -3.5549204063   -4.0982763368
C        -1.9429021884    2.7878119203   -3.7992180650
H        -1.0788025609    2.1754457010   -4.0580681817
H        -1.5733347090    3.7594118566   -3.4691736660
H        -2.5242880626    2.9401752787   -4.7092486643
C        -3.0717126390   -3.6282517237   -1.9901466155
H        -2.9057873989   -3.0390053196   -1.0880050183
H        -2.5968592178   -4.5993777552   -1.8449599620
H        -4.1460561407   -3.7909091190   -2.0856789187
C         2.7712386571   -0.4668735432    0.0714221104
C         3.5325009567    0.6966161445    0.2167394032
C         4.7522201644    0.6739278736    0.8923922961
H         5.3074815422    1.5990283021    0.9877506143
C         5.2319855251   -0.5129977086    1.4275997197
O         6.3985541348   -0.6354428480    2.0972238692
C         4.4843565578   -1.6773354808    1.2818805930
H         4.8682598206   -2.6012115084    1.6998844762
C         3.2696080503   -1.6629664933    0.6173550921
C         7.1752654694    0.5134659979    2.2972578105
H         8.0502347241    0.2037894589    2.8652929215
H         7.5136264117    0.9578743674    1.3550971728
H         6.6435628825    1.2811691154    2.8694732038
C         3.0279949847    2.0192514263   -0.3029033913
H         2.4892134260    1.8789864104   -1.2431599215
H         3.8760090251    2.6678383050   -0.5385773958
C         2.5230532051   -2.9631994434    0.4503597003
H         1.4454340344   -2.7952621839    0.5191986329
H         2.7752868914   -3.6341341001    1.2754719934
C         2.8373402040   -3.6578935765   -0.8730310664
H         2.5354931663   -3.0486129818   -1.7250776121
H         3.9055651292   -3.8550148051   -0.9688854715
H         2.3117805142   -4.6108583449   -0.9477180165
C         2.1142757808    2.7281598554    0.6943047248
H         1.2202628323    2.1391209270    0.9001511266
H         2.6241853438    2.8974615489    1.6433995139
H         1.7897813447    3.6956690637    0.3090366906
104
 Final energy is   -2280.63188990979     
C         0.0213327976   -0.3970387470    0.0773132864
C         0.0175929461   -0.3822555140    1.4885475998
H         0.9657044107   -0.3958886393    2.0162446165
C        -1.1637520126   -0.3482908992    2.1947370411
C        -2.4020132018   -0.3228201750    1.4876123515
C        -2.4261376950   -0.3336286584    0.1190522706
H        -3.3832747846   -0.3124711423   -0.3956921490
C        -1.2246681334   -0.3681885614   -0.6218581037
C        -1.4726626274   -0.3287730439    3.6248784726
C        -0.7439555943   -0.3384217599    4.7872639604
H         0.3384640624   -0.3655588207    4.7820739939
C        -2.8805840087   -0.2929832541    3.7280127813
C        -3.5898515188   -0.2666955006    4.9248756032
C        -3.4892767515   -0.2868691108    2.4583514208
C        -4.8588089426   -0.2519905648    2.3783219801
H        -5.3764192303   -0.2445453300    1.4263744305
C        -1.4373105849   -0.3122888492    6.0209353923
H        -0.8574805370   -0.3202411107    6.9349906594
C        -2.8102639951   -0.2774677535    6.1065470018
H        -3.2924338319   -0.2581794192    7.0762194345
C        -5.6029307210   -0.2248793078    3.5792793158
H        -6.6837818327   -0.1973760101    3.5197316681
C        -5.0021558795   -0.2318798122    4.8177055002
H        -5.6127766283   -0.2101553211    5.7122128288
B        -1.2371146036   -0.3784766660   -2.1483577651
C         0.0676949853   -0.3914799612   -2.9392229620
C         0.0664498715   -0.3880865569   -4.3504081219
H        -0.8720809665   -0.3572127476   -4.8978342939
C         1.2423685111   -0.4245218949   -5.0483313690
C         2.4931923790   -0.4704169849   -4.3665750201
C         2.5128949808   -0.4689913743   -2.9913025497
H         3.4583744105   -0.5094493354   -2.4610409315
C         1.3145625203   -0.4241997478   -2.2469148372
C         1.4975417113   -0.4389965626   -6.4848162920
C         0.7134624787   -0.4129883840   -7.6111902845
H        -0.3674463401   -0.3650715416   -7.5544503217
C         2.8955980413   -0.4992355804   -6.6340635969
C         3.5412875409   -0.5383372051   -7.8678111197
C         3.5471500452   -0.5210024185   -5.3825336670
C         4.9177748673   -0.5862461342   -5.3765611738
H         5.4832452788   -0.6095352659   -4.4536320809
C         1.3434413168   -0.4496237570   -8.8760346044
H         0.7249735624   -0.4286779615   -9.7646943312
C         2.7110148195   -0.5111843193   -9.0151231854
H         3.1526123586   -0.5387728981  -10.0040350808
C         5.6027976347   -0.6264593880   -6.6147616357
H         6.6840126941   -0.6781978801   -6.6012009396
C         4.9544154020   -0.6040026938   -7.8279067785
H         5.5235559139   -0.6380193713   -8.7489950313
B         1.3485086832   -0.4345105607   -0.7064177213
C        -2.6077980839   -0.4139264731   -2.9292500603
C        -3.3689340354    0.7838668936   -3.1533526313
C        -4.5377037107    0.7271509316   -3.8533784881
H        -5.1291572008    1.6174224318   -4.0321943763
C        -5.0083487457   -0.5055489612   -4.3780284596
O        -6.1344719758   -0.4368615967   -5.0365327035
C        -4.2785377921   -1.6932616982   -4.1769591625
H        -4.6311559296   -2.6350349753   -4.5769701480
C        -3.1123214275   -1.6599003674   -3.4611130969
C        -6.7210196677   -1.6004789326   -5.6171032078
H        -7.6348725304   -1.2642470574   -6.0961062850
H        -6.9628908324   -2.3398225785   -4.8530954786
H        -6.0606404882   -2.0403781155   -6.3649023122
C        -2.8576261398    2.1082997480   -2.6725857701
H        -2.3033185616    1.9790938806   -1.7424047379
H        -3.7039122093    2.7619633760   -2.4503733513
C        -2.3831804867   -2.9415099526   -3.2008460185
H        -1.3073065898   -2.7653035025   -3.2006050717
H        -2.5925717305   -3.6461952728   -4.0085501914
C        -1.9591031037    2.7694271324   -3.7183270671
H        -1.0835859880    2.1581141510   -3.9346993426
H        -1.6060174540    3.7340341673   -3.3555417862
H        -2.4970149230    2.9361435398   -4.6524999239
C        -2.8013281357   -3.5581565762   -1.8636885392
H        -2.5724725873   -2.8941386744   -1.0316362870
H        -2.2631944829   -4.4910294313   -1.7001039798
H        -3.8698236736   -3.7757202093   -1.8445516556
C         2.7310343973   -0.4924947979    0.0519828535
C         3.5100647730    0.6562581943    0.2210444346
C         4.7287872085    0.6044491848    0.8985998538
H         5.2973458093    1.5196882463    1.0116986326
C         5.1909737086   -0.5988576572    1.4126484242
O         6.3564870424   -0.7489675934    2.0829324649
C         4.4269242978   -1.7495328153    1.2438182403
H         4.7946718780   -2.6879537103    1.6447132179
C         3.2131002344   -1.7045973845    0.5766831761
C         7.1500355118    0.3885515806    2.2987400644
H         8.0225390661    0.0590560874    2.8594824931
H         7.4905016337    0.8421239630    1.3621797931
H         6.6292514949    1.1534328792    2.8839534492
C         3.0257823499    1.9951711626   -0.2756740179
H         2.4755471285    1.8740494873   -1.2116026297
H         3.8837520349    2.6314812413   -0.5096553159
C         2.4478498455   -2.9906173179    0.3858017413
H         1.3734356872   -2.8023338254    0.4457195424
H         2.6815969930   -3.6767911125    1.2041212552
C         2.7644349001   -3.6714185593   -0.9447379597
H         2.4864848028   -3.0401639817   -1.7887125899
H         3.8295149494   -3.8906213329   -1.0306074223
H         2.2197659424   -4.6122364783   -1.0407017777
C         2.1333462607    2.7057398154    0.7400061656
H         1.2348092891    2.1247034935    0.9480612974
H         2.6563165737    2.8588370823    1.6850758775
H         1.8180065678    3.6818939607    0.3681144631
104
 Final energy is   -2280.63531925949     
C         0.0224983788   -0.3983320398    0.0775064817
C         0.0185643081   -0.3836891560    1.4889642919
H         0.9663729911   -0.3971425366    2.0172375885
C        -1.1628359783   -0.3498223476    2.1949678525
C        -2.4011336795   -0.3245633293    1.4876635719
C        -2.4250839041   -0.3358343888    0.1189158080
H        -3.3820940734   -0.3151595977   -0.3959748848
C        -1.2236829271   -0.3708627898   -0.6218114363
C        -1.4718886406   -0.3302093744    3.6252495976
C        -0.7432308994   -0.3397327049    4.7877840588
H         0.3392203509   -0.3667649946    4.7828464231
C        -2.8798786491   -0.2945500309    3.7281217351
C        -3.5893450530   -0.2682353067    4.9249849175
C        -3.4884837314   -0.2887010539    2.4582801362
C        -4.8581498063   -0.2540798157    2.3780341505
H        -5.3756874693   -0.2468656623    1.4260411106
C        -1.4368282102   -0.3135398589    6.0214552830
H        -0.8570862797   -0.3213725113    6.9355857387
C        -2.8099151966   -0.2788458519    6.1068781186
H        -3.2922908327   -0.2595622187    7.0764634075
C        -5.6023840467   -0.2269334393    3.5790550334
H        -6.6832368308   -0.1996536304    3.5193068753
C        -5.0017735953   -0.2336668378    4.8177019584
H        -5.6124755924   -0.2119490337    5.7121673089
B        -1.2368892508   -0.3812113278   -2.1484294518
C         0.0681776463   -0.3926584035   -2.9389548271
C         0.0665842691   -0.3899905933   -4.3500912385
H        -0.8721327513   -0.3610377837   -4.8971767080
C         1.2424549589   -0.4249226299   -5.0484073673
C         2.4936981739   -0.4686663656   -4.3668577860
C         2.5137804102   -0.4673071936   -2.9915727794
H         3.4597333566   -0.5064167585   -2.4620227032
C         1.3154950273   -0.4241116443   -2.2467097127
C         1.4972989236   -0.4392285339   -6.4849089604
C         0.7127619270   -0.4147272884   -7.6111803702
H        -0.3682292579   -0.3689412996   -7.5542418841
C         2.8955345538   -0.4968993742   -6.6344871394
C         3.5410476161   -0.5347243700   -7.8684874154
C         3.5475633807   -0.5174060070   -5.3830979809
C         4.9184680313   -0.5798999084   -5.3774414275
H         5.4843449583   -0.6019551714   -4.4547004581
C         1.3426531633   -0.4501950890   -8.8762182006
H         0.7238692209   -0.4304757709   -9.7646928145
C         2.7104312348   -0.5090982068   -9.0157346755
H         3.1518892902   -0.5358317043  -10.0047396204
C         5.6032399744   -0.6187853342   -6.6159182936
H         6.6845746420   -0.6683367664   -6.6026409894
C         4.9544032427   -0.5975982883   -7.8290119776
H         5.5233075106   -0.6304498603   -8.7503063226
B         1.3495855047   -0.4347182701   -0.7063100721
C        -2.6081125891   -0.4150845674   -2.9300499292
C        -3.3647471943    0.7842541692   -3.1586962822
C        -4.5340524183    0.7287688003   -3.8579107575
H        -5.1229386093    1.6202152314   -4.0394284526
C        -5.0088434038   -0.5047369130   -4.3780435482
O        -6.1341172256   -0.4351584890   -5.0358790674
C        -4.2822383995   -1.6942756100   -4.1727468090
H        -4.6376996790   -2.6362430003   -4.5697850371
C        -3.1162103240   -1.6613657120   -3.4571587520
C        -6.7254837764   -1.5992122823   -5.6131382371
H        -7.6386248428   -1.2609036970   -6.0918471652
H        -6.9682749131   -2.3351451266   -4.8463308105
H        -6.0666313335   -2.0424870234   -6.3600995578
C        -2.8498544381    2.1094289418   -2.6831977667
H        -2.2911959046    1.9820425390   -1.7553742954
H        -3.6946381410    2.7640008885   -2.4581930755
C        -2.3907875696   -2.9444034304   -3.1924248238
H        -1.3145056625   -2.7706704454   -3.1874143660
H        -2.5980847479   -3.6492206390   -4.0004637882
C        -1.9565126572    2.7683123984   -3.7346338897
H        -1.0823344643    2.1562771093   -3.9544802062
H        -1.6013941459    3.7336048676   -3.3756023029
H        -2.4992781607    2.9331548768   -4.6663166825
C        -2.8163400348   -3.5594235041   -1.8569787155
H        -2.5903659847   -2.8953299101   -1.0241397116
H        -2.2808317763   -4.4932799380   -1.6903027010
H        -3.8853475864   -3.7747740291   -1.8430361935
C         2.7323909620   -0.4926444804    0.0523302080
C         3.5109544689    0.6562773888    0.2231103393
C         4.7295143256    0.6044938851    0.9012317779
H         5.2976285237    1.5198642716    1.0155915888
C         5.1921276611   -0.5991546775    1.4143121441
O         6.3573645056   -0.7492356582    2.0850778211
C         4.4286611145   -1.7500981399    1.2437792694
H         4.7963628056   -2.6890148618    1.6437313271
C         3.2150614710   -1.7050436991    0.5758759224
C         7.1506655976    0.3890315256    2.3023336990
H         8.0230030979    0.0594259814    2.8631891151
H         7.4911032173    0.8432867130    1.3662223933
H         6.6289904358    1.1528956769    2.8878799558
C         3.0265284956    1.9956293764   -0.2723502848
H         2.4753948297    1.8751443710   -1.2078221658
H         3.8843879650    2.6320314203   -0.5064002744
C         2.4508749056   -2.9914479882    0.3831715325
H         1.3762770582   -2.8037762768    0.4414798371
H         2.6839191094   -3.6781233058    1.2012634129
C         2.7696944756   -3.6711396291   -0.9474223656
H         2.4933480955   -3.0388927674   -1.7912095357
H         3.8348793739   -3.8906470233   -1.0316017768
H         2.2248489752   -4.6116466667   -1.0452427444
C         2.1349476302    2.7056549274    0.7444822205
H         1.2368082310    2.1241946797    0.9532016186
H         2.6588679056    2.8587401257    1.6890562031
H         1.8189200533    3.6817789733    0.3731189913
104
 Final energy is   -2280.64627963784     
C         0.0267980694   -0.3977911300    0.0784890280
C         0.0224534474   -0.3845441394    1.4906078371
H         0.9694086797   -0.3985910988    2.0205150191
C        -1.1590883672   -0.3510349690    2.1963145808
C        -2.3978075260   -0.3251493609    1.4886563056
C        -2.4215242589   -0.3364162715    0.1193539325
H        -3.3781669968   -0.3156284021   -0.3958573189
C        -1.2202355704   -0.3723376722   -0.6209954972
C        -1.4682354185   -0.3322080739    3.6269900827
C        -0.7394441330   -0.3425851270    4.7899151223
H         0.3430911181   -0.3698046984    4.7855610431
C        -2.8764454261   -0.2963096125    3.7293406673
C        -3.5862419455   -0.2705173423    4.9264217980
C        -3.4851313458   -0.2897099826    2.4591408494
C        -4.8552299755   -0.2549487078    2.3784956069
H        -5.3727249952   -0.2472951995    1.4264813246
C        -1.4334989687   -0.3169042487    6.0236969686
H        -0.8539121755   -0.3253787415    6.9379562265
C        -2.8070329188   -0.2819839442    6.1087925283
H        -3.2898601166   -0.2632188518    7.0781950883
C        -5.5994608929   -0.2283385278    3.5799469287
H        -6.6802921310   -0.2010339547    3.5198177196
C        -4.9990623854   -0.2357380906    4.8191514684
H        -5.6097516242   -0.2144732578    5.7136594035
B        -1.2364093436   -0.3823706363   -2.1479858011
C         0.0697866000   -0.3909074336   -2.9375123148
C         0.0663527384   -0.3926434640   -4.3484277610
H        -0.8731956189   -0.3705062608   -4.8939274148
C         1.2419280251   -0.4235252999   -5.0483729981
C         2.4947242488   -0.4584382224   -4.3679281837
C         2.5165284484   -0.4560018748   -2.9926164094
H         3.4641697533   -0.4897404235   -2.4656060019
C         1.3185548101   -0.4182986255   -2.2458536371
C         1.4951478512   -0.4389301821   -6.4850150634
C         0.7086199982   -0.4216465560   -7.6105860626
H        -0.3726161083   -0.3839892798   -7.5525305213
C         2.8939104960   -0.4870190779   -6.6361272889
C         3.5383796388   -0.5213864753   -7.8711701258
C         3.5480186743   -0.5012062057   -5.3854878401
C         4.9198229681   -0.5529940738   -5.3813353613
H         5.4874504427   -0.5691233913   -4.4594492541
C         1.3377638690   -0.4541791411   -8.8764706817
H         0.7175607550   -0.4402936042   -9.7640635989
C         2.7061586252   -0.5030542242   -9.0178770880
H         3.1467879884   -0.5276450510  -10.0073213588
C         5.6033504627   -0.5880997211   -6.6209425209
H         6.6850855803   -0.6290796382   -6.6090075069
C         4.9524994721   -0.5733738942   -7.8335789148
H         5.5202467328   -0.6027826951   -8.7557439594
B         1.3535514186   -0.4316805377   -0.7056807691
C        -2.6092667437   -0.4165772944   -2.9305656727
C        -3.3543532194    0.7845804934   -3.1781433530
C        -4.5215550307    0.7286084926   -3.8808612809
H        -5.1033250680    1.6218453861   -4.0763020333
C        -5.0037262300   -0.5096144066   -4.3860790787
O        -6.1231833929   -0.4413986874   -5.0482719245
C        -4.2864693350   -1.7026000500   -4.1595881778
H        -4.6476079933   -2.6472445512   -4.5450900548
C        -3.1247961393   -1.6663702702   -3.4385845755
C        -6.7239863827   -1.6095289749   -5.6143721754
H        -7.6329883379   -1.2682574411   -6.0983088589
H        -6.9723138040   -2.3328601816   -4.8379659496
H        -6.0651420486   -2.0647165074   -6.3536064396
C        -2.8337204434    2.1138078808   -2.7185596834
H        -2.2654240157    1.9941032505   -1.7954772742
H        -3.6762389988    2.7695830431   -2.4892935256
C        -2.4125332314   -2.9521120798   -3.1477266848
H        -1.3365483176   -2.7821893529   -3.1033267087
H        -2.5927541230   -3.6564039808   -3.9623810236
C        -1.9533137909    2.7665208467   -3.7842074967
H        -1.0821292534    2.1527769545   -4.0116422953
H        -1.5943912326    3.7344825215   -3.4359990250
H        -2.5079001069    2.9245929801   -4.7099981066
C        -2.8884924676   -3.5661728522   -1.8292892073
H        -2.6957382262   -2.9008942737   -0.9887594374
H        -2.3598606372   -4.4999828180   -1.6413104585
H        -3.9571884636   -3.7813745288   -1.8568113668
C         2.7372264960   -0.4926259367    0.0532352313
C         3.5162347745    0.6553517283    0.2311632629
C         4.7345231256    0.6004764110    0.9102662924
H         5.3027898914    1.5151080738    1.0299824928
C         5.1968851536   -0.6060114533    1.4177408185
O         6.3612665905   -0.7591156852    2.0889446780
C         4.4334107168   -1.7563426510    1.2400700844
H         4.7997551257   -2.6981446046    1.6349759462
C         3.2202354476   -1.7077506353    0.5705466121
C         7.1559608854    0.3796620591    2.3123539897
H         8.0277033142    0.0470066183    2.8720672285
H         7.4961804075    0.8374297250    1.3782887956
H         6.6333817910    1.1400752018    2.9009427623
C         3.0330867905    1.9976471342   -0.2576486255
H         2.4789342453    1.8815570394   -1.1918841752
H         3.8913213535    2.6337536978   -0.4906892261
C         2.4577142640   -2.9940043841    0.3697273299
H         1.3827553481   -2.8066435519    0.4213011896
H         2.6861164102   -3.6834570885    1.1867396885
C         2.7849337687   -3.6694330298   -0.9610668706
H         2.5168195719   -3.0324515985   -1.8040659994
H         3.8501225233   -3.8920423961   -1.0378634468
H         2.2380075173   -4.6077798984   -1.0670234228
C         2.1452156416    2.7051324579    0.7642257596
H         1.2480371426    2.1226370650    0.9747436382
H         2.6728432406    2.8565441560    1.7070613840
H         1.8275985242    3.6819425350    0.3961594317
104
 Final energy is   -2280.65533667099     
C         0.0307437616   -0.4003927367    0.0818629133
C         0.0262672843   -0.3863387143    1.4945053147
H         0.9726908289   -0.3965684693    2.0255749116
C        -1.1554571063   -0.3565286552    2.2001473986
C        -2.3949026086   -0.3368421257    1.4924560630
C        -2.4187482393   -0.3493463322    0.1226634399
H        -3.3751336540   -0.3329697599   -0.3928226502
C        -1.2173590733   -0.3807016851   -0.6174505462
C        -1.4643089418   -0.3359314727    3.6311748470
C        -0.7349896994   -0.3399031695    4.7942444357
H         0.3477274211   -0.3623289256    4.7901703108
C        -2.8728105458   -0.3056059219    3.7333653992
C        -3.5825959501   -0.2794394682    4.9307968340
C        -3.4820313392   -0.3043806928    2.4630960924
C        -4.8526341191   -0.2755656636    2.3823913410
H        -5.3703384055   -0.2725481845    1.4304766513
C        -1.4291294160   -0.3136460327    6.0282368478
H        -0.8494061018   -0.3169216910    6.9424513162
C        -2.8031656487   -0.2843023875    6.1133194204
H        -3.2861943266   -0.2647963745    7.0826179428
C        -5.5965494921   -0.2491083129    3.5843996231
H        -6.6774661121   -0.2265765864    3.5242156558
C        -4.9958910109   -0.2507085142    4.8238801921
H        -5.6063121113   -0.2296175682    5.7185737476
B        -1.2364582604   -0.3876267437   -2.1448008112
C         0.0709457531   -0.3943683202   -2.9335838712
C         0.0655399547   -0.4023977938   -4.3443473284
H        -0.8746943205   -0.3877300137   -4.8884512482
C         1.2407549172   -0.4307546023   -5.0458308493
C         2.4950535258   -0.4550378431   -4.3666543926
C         2.5186473365   -0.4485918904   -2.9913192939
H         3.4678418995   -0.4751433569   -2.4665832598
C         1.3210395541   -0.4158341049   -2.2426706631
C         1.4920847042   -0.4504375682   -6.4826207207
C         0.7033768802   -0.4432171161   -7.6071978355
H        -0.3780230393   -0.4139626753   -7.5476438907
C         2.8912008203   -0.4888659461   -6.6353982216
C         3.5343117319   -0.5221506784   -7.8715167651
C         3.5475698270   -0.4936027016   -5.3856702248
C         4.9201210710   -0.5337574846   -5.3832603172
H         5.4896464022   -0.5414140117   -4.4623549383
C         1.3314258409   -0.4754021520   -8.8739693437
H         0.7096643087   -0.4696274987   -9.7605339690
C         2.7002768516   -0.5140549916   -9.0174235312
H         3.1398527591   -0.5385160020  -10.0073371957
C         5.6021434669   -0.5673429264   -6.6240221275
H         6.6842109269   -0.5989742082   -6.6136459830
C         4.9490740386   -0.5623147153   -7.8359746521
H         5.5154469535   -0.5899954046   -8.7590527189
B         1.3573332854   -0.4292846715   -0.7026137655
C        -2.6096652896   -0.4163125163   -2.9292244323
C        -3.3409710947    0.7893911356   -3.1889745950
C        -4.5049534209    0.7396161303   -3.8974683465
H        -5.0770862183    1.6369796193   -4.1023556566
C        -4.9959791105   -0.4986954624   -4.3962213527
O        -6.1090012886   -0.4254151339   -5.0646821804
C        -4.2911409172   -1.6974098273   -4.1551111967
H        -4.6595511495   -2.6418315404   -4.5344770399
C        -3.1340423272   -1.6647615440   -3.4276180751
C        -6.7192720726   -1.5924382828   -5.6277433124
H        -7.6220503862   -1.2442015785   -6.1179874990
H        -6.9771553800   -2.3074115907   -4.8471445578
H        -6.0595551027   -2.0571315238   -6.3598507806
C        -2.8119555858    2.1183308081   -2.7365820427
H        -2.2363175386    1.9989531497   -1.8178978910
H        -3.6506443054    2.7766242747   -2.5011245415
C        -2.4379693178   -2.9560460287   -3.1186642050
H        -1.3646879568   -2.7902125740   -3.0223173750
H        -2.5817819302   -3.6509743203   -3.9482737743
C        -1.9402547876    2.7677848235   -3.8110490774
H        -1.0750354510    2.1494335609   -4.0492487513
H        -1.5735319955    3.7344950208   -3.4671521943
H        -2.5046770736    2.9278145718   -4.7304204527
C        -2.9777457723   -3.5826482085   -1.8313732817
H        -2.8375876205   -2.9200233391   -0.9779972661
H        -2.4526516868   -4.5136169552   -1.6204287597
H        -4.0415937804   -3.8056864150   -1.9180504523
C         2.7422362895   -0.4881942047    0.0555948827
C         3.5196418237    0.6609545196    0.2357963782
C         4.7391437705    0.6073268230    0.9133140028
H         5.3058301680    1.5227554302    1.0345560268
C         5.2048521869   -0.5996828202    1.4173172973
O         6.3700908243   -0.7518087051    2.0866033989
C         4.4433665278   -1.7514080450    1.2374224510
H         4.8113575333   -2.6940679152    1.6291443872
C         3.2290064036   -1.7036175210    0.5691512109
C         7.1640126993    0.3892235960    2.3121092871
H         8.0368477658    0.0565656429    2.8698883356
H         7.5015829499    0.8493069226    1.3785425989
H         6.6401718101    1.1466842140    2.9028792536
C         3.0339239230    2.0037141641   -0.2492651526
H         2.4770483427    1.8883156646   -1.1819940422
H         3.8906815462    2.6413961803   -0.4828995662
C         2.4702978119   -2.9917805826    0.3655056216
H         1.3947517332   -2.8066207083    0.4120983819
H         2.6970529957   -3.6810929549    1.1830166863
C         2.8045913778   -3.6664330694   -0.9639722354
H         2.5420897725   -3.0278499028   -1.8076656680
H         3.8699553719   -3.8904684886   -1.0346408059
H         2.2573412540   -4.6040345273   -1.0741315959
C         2.1481339014    2.7085501936    0.7762620136
H         1.2533603981    2.1233136429    0.9901053349
H         2.6793153682    2.8614355640    1.7168723293
H         1.8266771256    3.6846526923    0.4097599502
