104
 Final energy is   -2280.64861194068     
C        -0.0092246637   -0.3566128769    0.0323678831
C        -0.0036419148   -0.3706885839    1.4397715586
H         0.9427785539   -0.4022208660    1.9680288282
C        -1.1874214357   -0.3421776621    2.1397340556
C        -1.4847550300   -0.3471243632    3.5741720401
C        -0.7438530703   -0.3806688599    4.7259431292
H         0.3383468071   -0.4127216323    4.7094984828
C        -1.4255093138   -0.3734362810    5.9668387339
H        -0.8393234469   -0.4001599584    6.8761223648
C        -2.7977185105   -0.3344747864    6.0598788128
H        -3.2722315034   -0.3306247562    7.0335152276
C        -2.8885484883   -0.3076405346    3.6829197812
C        -3.5874084932   -0.2998885126    4.8852498012
C        -3.5037133318   -0.2776896264    2.4167469268
C        -4.8718897655   -0.2368416946    2.3455782359
H        -5.3953242336   -0.2112751629    1.3975924956
C        -5.6082655105   -0.2279181195    3.5530929021
H        -6.6888710126   -0.1958726349    3.4998350305
C        -5.0002006367   -0.2583060859    4.7870501993
H        -5.6059344490   -0.2500442060    5.6849585578
C        -2.4226143920   -0.2997758254    1.4359245917
C        -2.4476180321   -0.2889708512    0.0599824613
H        -3.3942658286   -0.2624065809   -0.4690523740
C        -1.2479190743   -0.3138842035   -0.6706386297
B         1.3341195532   -0.3915342601   -0.7291838448
B        -1.2988598202   -0.3020410426   -2.2204584329
C         1.3222665702   -0.3465388967   -2.2669684462
C         2.5229114227   -0.3734118573   -2.9692744837
H         3.4589598703   -0.4277725669   -2.4252147054
C         2.5276387207   -0.3354033100   -4.3504833747
C         3.5729787643   -0.3508437323   -5.3187874628
C         4.9599237766   -0.4063338366   -5.2770801248
H         5.4980597136   -0.4494357739   -4.3394123271
C         5.6600663837   -0.4088688418   -6.4915221177
H         6.7410855684   -0.4526433180   -6.4650362856
C         5.0284248778   -0.3596289201   -7.7242873668
H         5.6204003882   -0.3655629380   -8.6310073648
C         2.9382144340   -0.3006821111   -6.5854466094
C         3.6166493866   -0.3037759320   -7.8033683289
C         1.5217655929   -0.2535386620   -6.4728378595
C         0.7587791944   -0.2049833789   -7.6374591192
H        -0.3223556341   -0.1672200750   -7.6057192590
C         1.4271711669   -0.2061313706   -8.8664576183
H         0.8415230932   -0.1684600635   -9.7759870319
C         2.8103844322   -0.2540633933   -8.9675278341
H         3.2747838128   -0.2538974768   -9.9458221979
C         1.2302160781   -0.2754426233   -5.0882525401
C         0.0304624124   -0.2625358759   -4.3852143798
H        -0.9100544017   -0.2299859016   -4.9247195778
C         0.0287634394   -0.2988981993   -3.0018073503
C         2.7040066494   -0.4981529555    0.0351929088
C         3.5050976485    0.6277117007    0.2469310162
C         4.7217946792    0.5207278588    0.9198716854
H         5.3116479798    1.4170201942    1.0691910513
C         5.1566657330   -0.7129729076    1.3857651782
O         6.3176558372   -0.9151907632    2.0444477910
C         4.3658043392   -1.8390936689    1.1757260032
H         4.7124233969   -2.8002874130    1.5393133385
C         3.1537295595   -1.7413242302    0.5124884084
C         7.1481341497    0.1911928406    2.2892510598
H         8.0170584123   -0.1843872848    2.8254742860
H         7.4890853062    0.6663203188    1.3640061081
H         6.6578700140    0.9486226846    2.9088904752
C         3.0455457281    1.9949460925   -0.1922404697
H         2.4800079142    1.9244265355   -1.1249920049
H         3.9140714931    2.6198245965   -0.4161490920
C         2.3618361865   -3.0018979949    0.2670425387
H         1.2902089023   -2.7885463127    0.2822848504
H         2.5379410902   -3.7062186995    1.0838472835
C         2.1841783876    2.6871526632    0.8620551404
H         1.2760282698    2.1197290797    1.0662102007
H         1.8842700490    3.6816749811    0.5295337249
H         2.7258550562    2.7953792700    1.8023928622
C         2.7214096919   -3.6726104191   -1.0577647043
H         2.5065438265   -3.0209383556   -1.9048938601
H         3.7816430377   -3.9252802647   -1.0953669107
H         2.1519202292   -4.5926460656   -1.1962446240
C        -2.6734497604   -0.3131192223   -2.9954440939
C        -3.1978695079   -1.5105888623   -3.4920701802
C        -4.4077062371   -1.5326862965   -4.1850965079
H        -4.7766621093   -2.4845097775   -4.5486121435
C        -5.1181236743   -0.3597089226   -4.3931250979
O        -6.2960707740   -0.2834540211   -5.0486029922
C        -4.6064686029    0.8378193681   -3.9027786210
H        -5.1628279134    1.7539899454   -4.0685651324
C        -3.4041926231    0.8679250351   -3.2148327881
C        -6.8616540019   -1.4685112375   -5.5503376876
H        -7.7969083680   -1.1881566784   -6.0302990671
H        -7.0803042560   -2.1912843816   -4.7579878247
H        -6.2208322304   -1.9519582099   -6.2944044338
C        -2.8727301256    2.2056719233   -2.7698191751
H        -3.7053722274    2.8496571750   -2.4756891581
H        -2.2501662513    2.0934650904   -1.8787102727
C        -2.5144648066   -2.8312639683   -3.2401668088
H        -1.4396888058   -2.6869246393   -3.1078492830
H        -2.6244384675   -3.4742113425   -4.1177628502
C        -2.0674228245    2.8958720048   -3.8688458578
H        -1.1975054343    2.3027267258   -4.1516844687
H        -2.6729963308    3.0431474097   -4.7638693703
H        -1.7104095162    3.8723434859   -3.5394834669
C        -3.0813809342   -3.5455884117   -2.0151979967
H        -2.9496756619   -2.9442949978   -1.1152542346
H        -4.1487133283   -3.7383339555   -2.1311595829
H        -2.5832757228   -4.5022383925   -1.8530352510
