104
 Final energy is   -2280.63088144524     
C         0.0643210507   -0.4167406684    0.0819989577
C         0.0615972944   -0.4006685920    1.4946199245
H         1.0092205899   -0.3967302304    2.0215425900
C        -1.1198000863   -0.3883339477    2.1885699514
C        -2.3811023989   -0.3896574131    1.4617392610
C        -2.4022278671   -0.4008861099    0.0922295243
H        -3.3455034261   -0.4005596143   -0.4427654276
C        -1.2037093995   -0.4105721668   -0.6365112079
C        -1.4390952123   -0.3715010579    3.6056687296
C        -0.7137059340   -0.3623966102    4.7727013044
H         0.3685861666   -0.3675363356    4.7713133589
C        -2.8492191002   -0.3642932247    3.6965117613
C        -3.5650482341   -0.3482882505    4.8895644570
C        -3.4563709578   -0.3749562073    2.4225373184
C        -4.8294976000   -0.3691848642    2.3336795648
H        -5.3390076399   -0.3762177353    1.3782952344
C        -1.4139965993   -0.3460543255    5.9978864192
H        -0.8426412867   -0.3387798322    6.9166758374
C        -2.7898673081   -0.3390110673    6.0723924631
H        -3.2768735029   -0.3263451021    7.0394475968
C        -5.5740639277   -0.3534361733    3.5291781452
H        -6.6545602729   -0.3489189320    3.4676352839
C        -4.9762593318   -0.3431658451    4.7715935103
H        -5.5925259450   -0.3308907788    5.6619926660
B        -1.2539992410   -0.4064336597   -2.1677922982
C         0.0763233816   -0.4205280238   -2.9251909026
C         0.0719912847   -0.4213475720   -4.3273918788
H        -0.8742740424   -0.3962504435   -4.8559390353
C         1.2501510023   -0.4601578768   -5.0230602412
C         2.5277747241   -0.5035201390   -4.3268271245
C         2.5522579539   -0.4962682293   -2.9580522764
H         3.4945580798   -0.5317590683   -2.4236156692
C         1.3493862843   -0.4497259801   -2.2190811319
C         1.5093807728   -0.4786567015   -6.4422235801
C         0.7208328943   -0.4571792453   -7.5703094539
H        -0.3591260006   -0.4119489211   -7.5093975508
C         2.9110887969   -0.5372376027   -6.5890031297
C         3.5556780220   -0.5780087553   -7.8232899963
C         3.5690618081   -0.5547147206   -5.3396141686
C         4.9422687692   -0.6167811853   -5.3329371459
H         5.5067747321   -0.6362499398   -4.4098899537
C         1.3516259967   -0.4958213507   -8.8293776837
H         0.7355225689   -0.4788824095   -9.7190481078
C         2.7218712654   -0.5551507959   -8.9672733338
H         3.1613823021   -0.5843786294   -9.9567090058
C         5.6217165959   -0.6581898895   -6.5692215141
H         6.7026023865   -0.7074255456   -6.5609503760
C         4.9674457176   -0.6402453890   -7.7815479078
H         5.5359984183   -0.6752303511   -8.7026344566
B         1.3915240095   -0.4413429088   -0.6867176076
C        -2.6286534181   -0.3998845028   -2.9480706283
C        -3.3387123223    0.7948492858   -3.1662646998
C        -4.5378464797    0.7899275089   -3.8595273240
H        -5.0779568215    1.7156518403   -4.0240164061
C        -5.0676618059   -0.3947691204   -4.3594777677
O        -6.2412515742   -0.2934323173   -5.0208225594
C        -4.3788812797   -1.5805555099   -4.1558720202
H        -4.7612888368   -2.5231518665   -4.5295796466
C        -3.1721025436   -1.5842032755   -3.4568726572
C        -6.8184632650   -1.4612922181   -5.5386721672
H        -7.7461231090   -1.1626673469   -6.0229006327
H        -7.0546003512   -2.1915730557   -4.7574520224
H        -6.1800325153   -1.9476004050   -6.2838507840
C        -2.7875667063    2.1223621025   -2.7150167384
H        -2.1868298235    2.0003784877   -1.8107901207
H        -3.6124112139    2.7859679495   -2.4426382787
C        -2.5098322867   -2.9181567078   -3.2195292758
H        -1.4313667408   -2.7939594487   -3.1014100701
H        -2.6448186250   -3.5549204063   -4.0982763368
C        -1.9429021884    2.7878119203   -3.7992180650
H        -1.0788025609    2.1754457010   -4.0580681817
H        -1.5733347090    3.7594118566   -3.4691736660
H        -2.5242880626    2.9401752787   -4.7092486643
C        -3.0717126390   -3.6282517237   -1.9901466155
H        -2.9057873989   -3.0390053196   -1.0880050183
H        -2.5968592178   -4.5993777552   -1.8449599620
H        -4.1460561407   -3.7909091190   -2.0856789187
C         2.7712386571   -0.4668735432    0.0714221104
C         3.5325009567    0.6966161445    0.2167394032
C         4.7522201644    0.6739278736    0.8923922961
H         5.3074815422    1.5990283021    0.9877506143
C         5.2319855251   -0.5129977086    1.4275997197
O         6.3985541348   -0.6354428480    2.0972238692
C         4.4843565578   -1.6773354808    1.2818805930
H         4.8682598206   -2.6012115084    1.6998844762
C         3.2696080503   -1.6629664933    0.6173550921
C         7.1752654694    0.5134659979    2.2972578105
H         8.0502347241    0.2037894589    2.8652929215
H         7.5136264117    0.9578743674    1.3550971728
H         6.6435628825    1.2811691154    2.8694732038
C         3.0279949847    2.0192514263   -0.3029033913
H         2.4892134260    1.8789864104   -1.2431599215
H         3.8760090251    2.6678383050   -0.5385773958
C         2.5230532051   -2.9631994434    0.4503597003
H         1.4454340344   -2.7952621839    0.5191986329
H         2.7752868914   -3.6341341001    1.2754719934
C         2.8373402040   -3.6578935765   -0.8730310664
H         2.5354931663   -3.0486129818   -1.7250776121
H         3.9055651292   -3.8550148051   -0.9688854715
H         2.3117805142   -4.6108583449   -0.9477180165
C         2.1142757808    2.7281598554    0.6943047248
H         1.2202628323    2.1391209270    0.9001511266
H         2.6241853438    2.8974615489    1.6433995139
H         1.7897813447    3.6956690637    0.3090366906
