104
 Final energy is   -2280.65733864661     
C        -0.0093780898   -0.3518198621    0.0318552777
C        -0.0038843215   -0.3644666823    1.4396318207
H         0.9416285661   -0.3979956723    1.9693240576
C        -1.1875560454   -0.3316456439    2.1399984398
C        -1.4845077081   -0.3336129826    3.5746451938
C        -0.7430820439   -0.3674549030    4.7266147775
H         0.3390934986   -0.4023067322    4.7102922346
C        -1.4249243406   -0.3565267126    5.9678443197
H        -0.8385502688   -0.3834480675    6.8770416552
C        -2.7975029249   -0.3137332715    6.0611060388
H        -3.2722641746   -0.3071402529    7.0346311365
C        -2.8884460477   -0.2901059627    3.6832743451
C        -3.5872181867   -0.2786752856    4.8860324237
C        -3.5041576602   -0.2603238680    2.4170595481
C        -4.8726826698   -0.2158388870    2.3459172429
H        -5.3964880728   -0.1903189128    1.3980660927
C        -5.6087594078   -0.2031097799    3.5540540057
H        -6.6893114318   -0.1682402825    3.5008594346
C        -5.0003302404   -0.2333745563    4.7883973251
H        -5.6054928734   -0.2221566924    5.6866940044
C        -2.4230775236   -0.2868997413    1.4361233401
C        -2.4481211764   -0.2786596743    0.0599140925
H        -3.3957610920   -0.2509419005   -0.4672172663
C        -1.2484382195   -0.3076258620   -0.6712485069
B         1.3341389456   -0.3900317983   -0.7297091609
B        -1.2993060730   -0.2998937248   -2.2214518582
C         1.3221145091   -0.3406641874   -2.2672002642
C         2.5236283029   -0.3617387726   -2.9701250440
H         3.4609227557   -0.4136926026   -2.4281197747
C         2.5280074914   -0.3213436206   -4.3506043652
C         3.5743165781   -0.3310034796   -5.3194916779
C         4.9612221703   -0.3797642143   -5.2776689037
H         5.4997558614   -0.4208530242   -4.3400499345
C         5.6615878158   -0.3776973191   -6.4930134329
H         6.7428409318   -0.4161429698   -6.4665153826
C         5.0294860423   -0.3301470443   -7.7256778006
H         5.6208175470   -0.3321419100   -8.6328753506
C         2.9388562844   -0.2824577246   -6.5858204492
C         3.6169613679   -0.2808953135   -7.8038552707
C         1.5217038739   -0.2418917858   -6.4730240886
C         0.7578832578   -0.1954094123   -7.6373638691
H        -0.3234730980   -0.1628059646   -7.6052018790
C         1.4264005396   -0.1920202009   -8.8668914250
H         0.8403691497   -0.1560435784   -9.7762704738
C         2.8101300683   -0.2333951149   -8.9683253066
H         3.2746504096   -0.2298850647   -9.9465796795
C         1.2305157176   -0.2664193203   -5.0883805074
C         0.0303089321   -0.2584623920   -4.3856494140
H        -0.9088703762   -0.2288310245   -4.9275054839
C         0.0282758854   -0.2948019677   -3.0020965325
C         2.7034447298   -0.5055352328    0.0353667592
C         3.5092621974    0.6158632169    0.2550330832
C         4.7252075801    0.5000732685    0.9285159116
H         5.3192403023    1.3926686308    1.0835823339
C         5.1546180851   -0.7386086457    1.3874013247
O         6.3141038476   -0.9488642695    2.0460926455
C         4.3592136704   -1.8606001782    1.1694613443
H         4.7002118747   -2.8264097155    1.5267354185
C         3.1479925284   -1.7535642080    0.5048611077
C         7.1508126585    0.1548941159    2.2970489073
H         8.0178329392   -0.2272547308    2.8314359816
H         7.4927080470    0.6322408460    1.3738252491
H         6.6625590932    0.9102948413    2.9199807956
C         3.0565194496    1.9877814855   -0.1766006065
H         2.4868080889    1.9244931376   -1.1073366775
H         3.9279117006    2.6085884642   -0.3999791827
C         2.3523020648   -3.0098525353    0.2495698928
H         1.2815507057   -2.7917799994    0.2591167787
H         2.5211619517   -3.7191507158    1.0635202476
C         2.2029689330    2.6801930668    0.8840052525
H         1.2942380187    2.1147217912    1.0916240140
H         1.9046449877    3.6763587550    0.5549714935
H         2.7502806109    2.7850025294    1.8215327796
C         2.7163512637   -3.6757217007   -1.0765989051
H         2.5138837840   -3.0167397816   -1.9212635770
H         3.7745456892   -3.9380839118   -1.1072242169
H         2.1396485979   -4.5897584091   -1.2247245079
C        -2.6744700959   -0.3187122683   -2.9963209575
C        -3.1961249135   -1.5213456987   -3.4843763710
C        -4.4060982527   -1.5522756025   -4.1773496741
H        -4.7724964450   -2.5076173723   -4.5341583963
C        -5.1198183287   -0.3823228298   -4.3937940823
O        -6.2979577642   -0.3145497036   -5.0497125299
C        -4.6110821080    0.8205279203   -3.9120668672
H        -5.1688150187    1.7350387781   -4.0838042297
C        -3.4082137325    0.8588174761   -3.2243520773
C        -6.8595990050   -1.5069077735   -5.5461732934
H        -7.7951813298   -1.2325781763   -6.0286677953
H        -7.0756246116   -2.2248617536   -4.7493142624
H        -6.2152231794   -1.9911491411   -6.2860198624
C        -2.8803874570    2.2014513116   -2.7896623401
H        -3.7138785090    2.8435226305   -2.4939571214
H        -2.2509632547    2.0964280089   -1.9024761963
C        -2.5086982026   -2.8383657457   -3.2239268323
H        -1.4350749855   -2.6891308529   -3.0874056153
H        -2.6132988856   -3.4859579844   -4.0986119337
C        -2.0851848187    2.8894035064   -3.8975405646
H        -1.2165982494    2.2965161608   -4.1853014239
H        -2.6984539356    3.0328290239   -4.7880307808
H        -1.7276936233    3.8676566510   -3.5740033379
C        -3.0783627671   -3.5493087241   -1.9981728133
H        -2.9591033055   -2.9403418363   -1.1014467785
H        -4.1428768862   -3.7531164592   -2.1213515724
H        -2.5725010785   -4.5001366357   -1.8260446916
