104
 Final energy is   -2280.63797771364     
C        -0.0093336349   -0.3608990065    0.0325848976
C        -0.0037947608   -0.3757779947    1.4396159882
H         0.9437120251   -0.4054152407    1.9661469045
C        -1.1877110885   -0.3509026808    2.1390424353
C        -1.4855948569   -0.3575515716    3.5732311193
C        -0.7455475117   -0.3896234418    4.7250025601
H         0.3366338097   -0.4188846473    4.7085874811
C        -1.4270603453   -0.3847059212    5.9654334859
H        -0.8412195869   -0.4102156996    6.8748807807
C        -2.7988091463   -0.3493807416    6.0580419249
H        -3.2732696262   -0.3471715819    7.0316345388
C        -2.8892313468   -0.3218551827    3.6819588876
C        -3.5882726997   -0.3164752740    4.8837815536
C        -3.5036696836   -0.2927526848    2.4157216106
C        -4.8714416724   -0.2554771192    2.3445341726
H        -5.3944148070   -0.2306423349    1.3963890977
C        -5.6082050216   -0.2492343381    3.5512698163
H        -6.6888101134   -0.2200169344    3.4978837807
C        -5.0006466378   -0.2785881112    4.7848368913
H        -5.6069276695   -0.2723776871    5.6822958564
C        -2.4224920136   -0.3111987282    1.4351238365
C        -2.4472812384   -0.2986386374    0.0594510459
H        -3.3926921830   -0.2732589197   -0.4719538207
C        -1.2474965042   -0.3198376972   -0.6704701499
B         1.3340949361   -0.3926371477   -0.7286191887
B        -1.2984106177   -0.3048411385   -2.2200444548
C         1.3225325219   -0.3509266078   -2.2667689324
C         2.5225917698   -0.3811987647   -2.9681376510
H         3.4571382931   -0.4358050808   -2.4213589823
C         2.5279633219   -0.3457554078   -4.3499725103
C         3.5726101088   -0.3647290172   -5.3175076546
C         4.9596725442   -0.4226244795   -5.2757889355
H         5.4974102414   -0.4650335681   -4.3380029992
C         5.6597655390   -0.4285251222   -6.4891336689
H         6.7406305936   -0.4741362303   -6.4624789857
C         5.0286662705   -0.3805437283   -7.7220428392
H         5.6213209111   -0.3892404794   -8.6281987544
C         2.9386762147   -0.3156802855   -6.5845763302
C         3.6175957027   -0.3223729915   -7.8022759065
C         1.5227579327   -0.2656054577   -6.4723616861
C         0.7608027993   -0.2179616520   -7.6375657654
H        -0.3201504427   -0.1779852105   -7.6063489741
C         1.4291489092   -0.2228276221   -8.8657862405
H         0.8440010407   -0.1858812988   -9.7755882235
C         2.8119589795   -0.2735818924   -8.9662167668
H         3.2764554160   -0.2761836596   -9.9443929151
C         1.2306395760   -0.2843081201   -5.0880783186
C         0.0310604948   -0.2679398493   -4.3849043439
H        -0.9109211449   -0.2344089442   -4.9219988511
C         0.0294938269   -0.3032786831   -3.0017669092
C         2.7041418987   -0.4921131063    0.0350543143
C         3.5019525060    0.6370277268    0.2390960310
C         4.7194530995    0.5369282066    0.9107724596
H         5.3062247926    1.4361114868    1.0543529387
C         5.1582998950   -0.6924988824    1.3827278960
O         6.3206827246   -0.8887192456    2.0406775705
C         4.3705653217   -1.8215747087    1.1804693828
H         4.7219050134   -2.7785579193    1.5497068498
C         3.1575849270   -1.7312058991    0.5193704438
C         7.1461979771    0.2182529126    2.2795919265
H         8.0167119175   -0.1522839865    2.8171011268
H         7.4867235811    0.6917613990    1.3527009359
H         6.6555614896    0.9785270380    2.8964241441
C         3.0367901966    2.0003831180   -0.2059649235
H         2.4740660435    1.9240642233   -1.1399823662
H         3.9028178491    2.6284514265   -0.4311285857
C         2.3680341059   -2.9948715020    0.2829208528
H         1.2958145003   -2.7850037131    0.3047049300
H         2.5510284873   -3.6953210178    1.1015839613
C         2.1701662525    2.6923599608    0.8439893910
H         1.2627623621    2.1232711612    1.0462658530
H         1.8688156976    3.6857314736    0.5094429372
H         2.7082715850    2.8030451464    1.7859510613
C         2.7217047367   -3.6694290284   -1.0413092649
H         2.4961917179   -3.0234755275   -1.8899090227
H         3.7832223726   -3.9148418431   -1.0860384858
H         2.1576975712   -4.5939656471   -1.1716783191
C        -2.6723871336   -0.3091280209   -2.9947237546
C        -3.1991061550   -1.5017308059   -3.4994032120
C        -4.4095160549   -1.5159070634   -4.1909145386
H        -4.7805123750   -2.4644430820   -4.5608396268
C        -5.1176776386   -0.3405415383   -4.3894997593
O        -6.2962318580   -0.2565726859   -5.0428616644
C        -4.6035687397    0.8519675810   -3.8912321098
H        -5.1595000374    1.7691713285   -4.0506163313
C        -3.4011832420    0.8748561259   -3.2047214836
C        -6.8639346545   -1.4336105833   -5.5512289343
H        -7.7992492487   -1.1478000059   -6.0282480095
H        -7.0844206333   -2.1631228372   -4.7648253432
H        -6.2262864752   -1.9148912813   -6.3002090602
C        -2.8659573617    2.2081011907   -2.7510653691
H        -3.6973756613    2.8539724446   -2.4574624997
H        -2.2486239705    2.0894396537   -1.8571441431
C        -2.5186623923   -2.8254337381   -3.2563538640
H        -1.4427562660   -2.6851026231   -3.1291569758
H        -2.6342145122   -3.4640669346   -4.1364833964
C        -2.0529501067    2.8998797683   -3.8432244291
H        -1.1826142527    2.3060648909   -4.1229701102
H        -2.6529010135    3.0505257485   -4.7413077256
H        -1.6955998765    3.8747723961   -3.5096870664
C        -3.0816500005   -3.5432609817   -2.0317908020
H        -2.9387943477   -2.9487938109   -1.1291891759
H        -4.1512443617   -3.7268092164   -2.1406432205
H        -2.5901245862   -4.5047872517   -1.8788443894
