174
 Final energy is   -3629.18225838275     
N         0.0860968545   -0.0835399132    0.2561214833
C        -0.0560816521   -0.1068330171    1.6415644755
C         1.3567719718   -0.1660342299   -0.3084643999
C         2.3847908931   -0.7748631462    0.4244981554
C         3.6656891009   -0.7786863589   -0.1113137153
H         4.4773930526   -1.2284084799    0.4443309296
C         3.9329013641   -0.2491961649   -1.3657596038
H         4.9382600014   -0.2777764535   -1.7643663367
C         2.8944172849    0.2899500912   -2.1072873674
H         3.0761807741    0.6880889583   -3.0976374629
C         1.6143863401    0.3396946316   -1.5837452644
H         0.8173341722    0.7811336258   -2.1657196132
C         0.9378313164   -0.7226772352    2.4133974702
C         0.8257484968   -0.6708786415    3.7960800669
H         1.5888913320   -1.1267433571    4.4123412500
C        -0.2624642767   -0.0748978752    4.4173587238
H        -0.3297126678   -0.0600621713    5.4969796357
C        -1.2667503957    0.4782734714    3.6397369454
H        -2.1328071664    0.9329924605    4.1040401568
C        -1.1655652589    0.4711120053    2.2598902473
H        -1.9451754868    0.9256139622    1.6639610343
C        -1.0363009942    0.2227620226   -0.5641144183
C        -1.3630694080    1.5291036737   -0.8924315850
H        -0.7522992390    2.3432516238   -0.5166520755
C        -1.8127439936   -0.8161431176   -1.0453239505
H        -1.5496454910   -1.8360210106   -0.7852879976
C        -2.4600791245    1.7986966974   -1.7044867593
C        -2.9181383374   -0.5667070413   -1.8515838273
C        -3.2569906805    0.7509266951   -2.1958096815
C        -3.7601526310   -1.7358893649   -2.2945092932
H        -3.1234736571   -2.6169546502   -2.4140608324
H        -4.1967248163   -1.5393001263   -3.2752869983
C        -2.7285049881    3.2273727041   -2.0981406671
H        -3.8021593529    3.3957359912   -2.2002651870
H        -2.3858591147    3.8961943194   -1.3041408805
C         1.9980503244   -1.5265436451    1.6845946987
C        -4.8761447943   -2.0525747139   -1.3009454496
H        -5.4543564987   -2.9186328002   -1.6262440844
H        -5.5649585265   -1.2132746110   -1.2031409037
H        -4.4730764297   -2.2712341397   -0.3108875911
C        -2.0309913238    3.5953215299   -3.4063274958
H        -2.3854278001    2.9719243708   -4.2272439385
H        -2.2196558395    4.6361959377   -3.6733644818
H        -0.9510714620    3.4595058998   -3.3268595189
C         1.3609519967   -2.8655189862    1.2525147639
H         0.4900446279   -2.7161796390    0.6140699189
H         1.0396873590   -3.4326044550    2.1281962336
H         2.0815739681   -3.4676362492    0.6956205513
C         3.2002557505   -1.8398701215    2.5679567626
H         3.7002431558   -0.9350402452    2.9156305847
H         2.8999547106   -2.4233442989    3.4380618125
H         3.9270217544   -2.4490402499    2.0313957036
B        -4.5079557468    1.0530322311   -3.1206701681
C        -4.4202324242    0.8770711069   -4.6439368717
C        -3.2589065348    0.4011698647   -5.2535612656
H        -2.4124363994    0.2065344998   -4.6080800404
C        -3.1418858036    0.1631113154   -6.6198471913
C        -4.2716685264    0.4197887851   -7.4417082985
C        -5.4128695776    0.9420161405   -6.8490103838
H        -6.2648150773    1.1824895069   -7.4722512926
C        -5.5403928796    1.1809709314   -5.4791633068
C        -1.9083361725   -0.3258738532   -7.2215433274
C        -1.8359907581   -0.5337811492   -8.6106834676
C        -0.6179273242   -0.9699754932   -9.1523738599
H        -0.5212860684   -1.1276777107  -10.2173721904
C         0.4830783722   -1.2116979035   -8.3668997604
H         1.4045046436   -1.5498307214   -8.8263897273
C         0.4185865956   -1.0304319950   -6.9816699419
C        -0.7706487085   -0.5908454070   -6.4426831631
H        -0.8144851367   -0.4507542862   -5.3714793615
C        -4.2136456475    0.1308750949   -8.8702501327
C        -5.3436262204    0.2713018456   -9.6939373506
H        -6.2849949963    0.5801565896   -9.2589698928
C        -5.3229788036    0.0070484282  -11.0461812846
C        -4.1173855668   -0.4186711084  -11.6113238748
H        -4.0633163472   -0.6380499757  -12.6714243842
C        -3.0005421870   -0.5794972355  -10.8271622728
H        -2.0971731637   -0.9293330766  -11.3061769270
C        -3.0144368913   -0.3202399490   -9.4474775889
C        -6.5513837465    0.1610847976  -11.8948916511
H        -7.4271842972    0.4074078109  -11.2941614937
H        -6.4243978072    0.9512521449  -12.6385073635
H        -6.7763568301   -0.7562731249  -12.4413355602
C         1.6124805127   -1.3065488184   -6.1170585793
H         1.3933212963   -1.1419750985   -5.0624736746
H         2.4531954621   -0.6642084507   -6.3857689466
H         1.9499734612   -2.3386482195   -6.2261733809
C        -5.8394618161    1.5274867475   -2.5194759617
C        -6.0241020938    1.5996387799   -1.1392971749
H        -5.1872691948    1.3056273419   -0.5197453788
C        -7.2091353733    2.0116602335   -0.5368621070
C        -8.2691213990    2.4475267137   -1.3750968588
C        -8.1022871488    2.3544261541   -2.7506903087
H        -8.9193135633    2.6385396135   -3.4019752937
C        -6.9374838891    1.8866072266   -3.3629931093
C        -9.4960923337    2.9648746805   -0.7812081245
C       -10.5335668265    3.4783345552   -1.5769479262
H       -10.4184628614    3.5004096189   -2.6524424622
C       -11.7059666313    3.9750617872   -1.0512689822
C       -11.8523225612    3.9715044517    0.3391451468
H       -12.7579803051    4.3603719934    0.7899392240
C       -10.8500425632    3.4831330995    1.1425851318
H       -11.0041317407    3.5107104734    2.2119282659
C        -9.6562519118    2.9673965859    0.6146022941
C        -7.3974599607    1.9787119766    0.9062428119
C        -8.6002994391    2.4376343324    1.4719799088
C        -8.7511740672    2.3550276620    2.8635114021
H        -9.6671640678    2.6864617137    3.3322520305
C        -7.7649428914    1.8442880753    3.6733716967
H        -7.9250389848    1.7923463226    4.7438588130
C        -6.5661708376    1.3802702174    3.1231228083
C        -6.4111896156    1.4557738551    1.7563563880
H        -5.4913336060    1.0751453650    1.3341356654
C       -12.7944390317    4.5102407691   -1.9356226471
H       -12.5120498144    4.4656796115   -2.9879375044
H       -13.0238567188    5.5512941614   -1.7017051762
H       -13.7198901967    3.9434678705   -1.8144402750
C        -5.4820132100    0.8228851094    3.9967883850
H        -4.7314541055    0.2903739834    3.4130471009
H        -4.9705689166    1.6175377989    4.5447211554
H        -5.8822737582    0.1287299982    4.7366889564
B        -6.8334121532    1.7363110533   -4.8799777394
C        -8.0445891553    2.1292392803   -5.8317829008
C        -8.9160604643    1.1452991755   -6.3313615882
C        -9.9308650037    1.4877691101   -7.2172360411
H       -10.5924272235    0.7270502780   -7.6176759915
C       -10.0843242593    2.8070923128   -7.5937882112
C        -9.2622055386    3.8030813292   -7.1058501786
H        -9.4027655804    4.8314125534   -7.4203871539
C        -8.2402864359    3.4649943228   -6.2251178973
N       -11.1047470652    3.1336898029   -8.5528020513
C       -12.4002371168    3.2856099466   -8.1185495158
C       -10.7413629813    3.2484923093   -9.8752431730
C       -11.7124757235    3.5359169225  -10.8532972239
C       -11.2893173564    3.6522033325  -12.1692557776
H       -12.0120022044    3.8718626681  -12.9435206462
C        -9.9619762331    3.4873552753  -12.5264590677
H        -9.6677332300    3.5862038407  -13.5624369587
C        -9.0121935802    3.1843354436  -11.5536513019
H        -7.9755979435    3.0415501014  -11.8249174980
C        -9.3919393753    3.0582634982  -10.2406922493
H        -8.6521864419    2.8124423633   -9.4938491101
C       -13.4314155717    3.5470534278   -9.0421897432
C       -14.7219964192    3.6708534692   -8.5498543999
H       -15.5366167269    3.8642323553   -9.2350459249
C       -15.0027710036    3.5520143190   -7.1990065244
H       -16.0218097253    3.6531286214   -6.8513375801
C       -13.9733104625    3.3081892616   -6.2923768999
H       -14.1830042003    3.2224043011   -5.2352636171
C       -12.6827133144    3.1772813190   -6.7408577384
H       -11.8864302762    2.9918891390   -6.0355296281
C        -8.8141088256   -0.2929197098   -5.8981598967
H        -9.1174740538   -0.9457829282   -6.7214137820
H        -7.7776148640   -0.5428172235   -5.6693433646
C        -7.3031269032    4.5535393972   -5.7790350384
H        -6.9126081266    4.3264667977   -4.7864496340
H        -7.8495370656    5.4966334411   -5.6924637529
C       -13.1774960619    3.6854043427  -10.5238044385
C        -9.6871992969   -0.5766362672   -4.6773775682
H        -9.3800946998    0.0319572786   -3.8271502191
H        -9.6089544302   -1.6227819471   -4.3808822568
H       -10.7383522684   -0.3647954417   -4.8824989996
C        -6.1436128838    4.7222043912   -6.7593809777
H        -5.5670847038    3.8012063503   -6.8415754178
H        -6.5039666974    4.9840807017   -7.7560957451
H        -5.4660406508    5.5104413986   -6.4305924836
C       -13.9629537674    2.5836364515  -11.2659575538
H       -13.6435558892    1.5904355734  -10.9518509401
H       -13.8175329682    2.6618836686  -12.3427829139
H       -15.0316196131    2.6735633806  -11.0743154852
C       -13.6631269663    5.0720600875  -10.9896002571
H       -14.7260130872    5.1994317626  -10.7895146887
H       -13.5214276921    5.1933722353  -12.0626539724
H       -13.1233164950    5.8710434193  -10.4828533712
