174
 Final energy is   -3629.28571251106     
N         0.1342381913    0.1756720524    0.2119580228
C        -0.0115167520    0.1310445069    1.5942062947
C         1.3264144719   -0.1802035196   -0.4093619288
C         2.4176886687   -0.6299457020    0.3398788294
C         3.5816097222   -0.9781856190   -0.3411363674
H         4.4315454910   -1.3397039047    0.2243445995
C         3.6935405789   -0.8939211940   -1.7179432197
H         4.6142820351   -1.1766999218   -2.2102779343
C         2.6036801228   -0.4463668244   -2.4489710564
H         2.6579017053   -0.3686745969   -3.5276298280
C         1.4336485983   -0.0949772777   -1.8046185724
H         0.5945564400    0.2487360764   -2.3931862417
C         1.0326775602   -0.3155065953    2.4102485454
C         0.8200191012   -0.3500647792    3.7856469734
H         1.6145824457   -0.7059605794    4.4299693757
C        -0.3744022370    0.0419652400    4.3650030127
H        -0.5018242048   -0.0029136626    5.4381859031
C        -1.3983677157    0.4900264597    3.5444621001
H        -2.3432281044    0.8089205205    3.9663955521
C        -1.2209028548    0.5348540731    2.1756198849
H        -2.0304612273    0.8883038319    1.5521926934
C        -1.0169725126    0.3939121602   -0.5957218332
C        -1.3260609401    1.6617732313   -1.0602701196
H        -0.6849980792    2.4962269838   -0.7982228405
C        -1.8248308135   -0.6811358559   -0.9264295711
H        -1.5694329466   -1.6694886021   -0.5593664028
C        -2.4400902003    1.8599944845   -1.8688663955
C        -2.9486776024   -0.5036346927   -1.7255188860
C        -3.2607916608    0.7745470151   -2.2043464629
C        -3.8241750107   -1.6935527830   -2.0287849424
H        -3.1968320603   -2.5511438046   -2.2855471220
H        -4.4390277721   -1.5028493359   -2.9127363434
C        -2.7031506843    3.2317954198   -2.4336821565
H        -3.7718834697    3.3722465913   -2.6212467187
H        -2.4301420008    3.9910963916   -1.6969888337
C         2.3625736926   -0.7885393106    1.8486353223
C        -4.7321824110   -2.0710729844   -0.8599055294
H        -5.3423200337   -2.9399314125   -1.1083351766
H        -5.4091907549   -1.2558791275   -0.6029750370
H        -4.1503696970   -2.3155409504    0.0296192279
C        -1.9247900275    3.4769309425   -3.7250540757
H        -2.1981878114    2.7542247985   -4.4940102064
H        -2.1264352339    4.4739747483   -4.1176715740
H        -0.8504874140    3.3930067507   -3.5564708805
C         2.5407011584   -2.2779968125    2.1906869190
H         1.7423609205   -2.8748949116    1.7482110398
H         2.5247228059   -2.4392591322    3.2693534725
H         3.4922962609   -2.6583857670    1.8165579171
C         3.4972572827    0.0323530047    2.4813977751
H         3.3848246360    1.0910359782    2.2467356907
H         3.5071359741   -0.0750431975    3.5662054084
H         4.4725726407   -0.2922854119    2.1179628366
B        -4.5141381159    1.0071200883   -3.1237486622
C        -4.4240644511    0.7992937177   -4.6600160591
C        -3.3077455963    0.2261341968   -5.2376109412
H        -2.4863919288   -0.0396787388   -4.5865502081
C        -3.2068969432   -0.0352155769   -6.6152154472
C        -4.2753925246    0.3483544387   -7.4461205079
C        -5.3897084584    0.9653965786   -6.8567532122
H        -6.2147742101    1.2794276577   -7.4808977174
C        -5.5035550285    1.1763891087   -5.4981634352
C        -2.0435006199   -0.6955635918   -7.1873911912
C        -1.9876282164   -0.9316734118   -8.5725496765
C        -0.8507478368   -1.5763105612   -9.0872264037
H        -0.7679463686   -1.7746362096  -10.1460843397
C         0.1797851200   -1.9803879191   -8.2761653787
H         1.0372352655   -2.4788577311   -8.7126134828
C         0.1315417915   -1.7616124737   -6.8938522375
C        -0.9750139382   -1.1225149950   -6.3811137311
H        -1.0078025427   -0.9601757207   -5.3127007610
C        -4.2251272420    0.0898197464   -8.8774397931
C        -5.2949391354    0.4327931112   -9.7229440975
H        -6.1813374397    0.8977424187   -9.3135095570
C        -5.2790444515    0.1868646367  -11.0779737649
C        -4.1406525209   -0.4239718163  -11.6181796830
H        -4.0951598697   -0.6323011578  -12.6806513271
C        -3.0828472487   -0.7724551464  -10.8161094233
H        -2.2323344498   -1.2479380348  -11.2827297599
C        -3.0940935686   -0.5338391062   -9.4313104852
C        -6.4357094540    0.5575986174  -11.9567455017
H        -7.2994739533    0.8759150601  -11.3743494317
H        -6.1723851495    1.3748407759  -12.6315307751
H        -6.7457427382   -0.2827064983  -12.5792295724
C         1.2529527289   -2.2186110583   -6.0107911354
H         1.0715411946   -1.9670654983   -4.9664361793
H         2.1990603776   -1.7615513077   -6.3056798199
H         1.3869426027   -3.2998037470   -6.0729356357
C        -5.8716861933    1.4508407449   -2.5155269899
C        -6.0699377500    1.4518586175   -1.1493929668
H        -5.2343628973    1.1744593166   -0.5222024151
C        -7.3003313934    1.7848515337   -0.5557794558
C        -8.3445184621    2.2251207966   -1.3877798307
C        -8.1318546686    2.2344753302   -2.7760812056
H        -8.9287393816    2.5468117281   -3.4363075866
C        -6.9467438060    1.8338544270   -3.3574045852
C        -9.6142053772    2.6402995372   -0.8128116342
C       -10.6579598873    3.1258215973   -1.6192142469
H       -10.5253438161    3.1989167745   -2.6899237874
C       -11.8702773758    3.5260839929   -1.1034373881
C       -12.0473540580    3.4492502821    0.2837607745
H       -12.9860119751    3.7637764244    0.7243683630
C       -11.0441720236    2.9810719411    1.0956838816
H       -11.2304353377    2.9467127407    2.1594534428
C        -9.8085308632    2.5596463072    0.5764295481
C        -7.5174768292    1.6586777256    0.8757254357
C        -8.7526850837    2.0372118347    1.4301741764
C        -8.9327272506    1.8725953077    2.8131579196
H        -9.8696572056    2.1446990116    3.2775251818
C        -7.9458614877    1.3526286026    3.6132233875
H        -8.1281246956    1.2350181661    4.6748021135
C        -6.7151853967    0.9613756780    3.0709138097
C        -6.5280460247    1.1243599705    1.7168669137
H        -5.5811610369    0.8074228372    1.3016539281
C       -12.9742075923    4.0173406902   -1.9918429264
H       -12.6342346090    4.1505061245   -3.0186656495
H       -13.3699675503    4.9727036358   -1.6449359229
H       -13.8071568813    3.3116099221   -2.0077279572
C        -5.6434852584    0.3795009599    3.9421728164
H        -4.7877591892    0.0465072068    3.3555182345
H        -5.2848713366    1.1111395073    4.6686224586
H        -6.0139782727   -0.4779156224    4.5056237485
B        -6.8088355203    1.7673505860   -4.9001317911
C        -7.9782358286    2.2337676815   -5.8431433662
C        -8.8781564681    1.2964839165   -6.3674679436
C        -9.8710444718    1.7122747156   -7.2462451670
H       -10.5576255682    0.9897023101   -7.6748320755
C       -10.0007313852    3.0478981154   -7.5819699452
C        -9.1365662264    3.9852904422   -7.0426774875
H        -9.2464447426    5.0296844420   -7.3137057016
C        -8.1163422944    3.5857891002   -6.1869198326
N       -11.0042618566    3.4418157074   -8.5088312365
C       -12.3133914882    3.5983559624   -8.0710504769
C       -10.6650387115    3.5462747731   -9.8532261350
C       -11.6402454398    3.8250179084  -10.8172124452
C       -11.2430142320    3.9311212341  -12.1472839409
H       -11.9903816914    4.1445920520  -12.9016002345
C        -9.9292753733    3.7687763338  -12.5485138382
H        -9.6594079442    3.8610859303  -13.5919833011
C        -8.9737934170    3.4816226075  -11.5868178613
H        -7.9370091684    3.3448892563  -11.8662597013
C        -9.3349182751    3.3661351812  -10.2579678001
H        -8.5704312307    3.1371105331   -9.5295131118
C       -13.3455785987    3.8643773506   -8.9785980159
C       -14.6388394674    4.0051322513   -8.4837295143
H       -15.4455883728    4.2048065689   -9.1787904919
C       -14.9386462743    3.8939824017   -7.1375283977
H       -15.9576542608    4.0064330960   -6.7923909276
C       -13.9076840763    3.6360302814   -6.2475060160
H       -14.1064197838    3.5447922131   -5.1869924777
C       -12.6122513896    3.4915746876   -6.7058923337
H       -11.8248341422    3.2904380370   -5.9933163213
C        -8.8339681625   -0.1574655069   -5.9725824780
H        -8.9393986998   -0.7826041254   -6.8632960273
H        -7.8618643671   -0.4144977418   -5.5441856699
C        -7.1241893958    4.6126059117   -5.7109703464
H        -6.6966129247    4.3167236889   -4.7488903572
H        -7.6351794014    5.5617092913   -5.5316481321
C       -13.1117853724    3.9908732541  -10.4757722314
C        -9.9349800499   -0.5109248343   -4.9744907800
H        -9.8451062235    0.0797899440   -4.0620270951
H        -9.8851041524   -1.5639740549   -4.6964668851
H       -10.9236106461   -0.3233549302   -5.3956260876
C        -6.0037747442    4.8249139352   -6.7275714044
H        -5.4537745884    3.9005950144   -6.9078674543
H        -6.4046204829    5.1637639144   -7.6838203587
H        -5.2921992725    5.5733883399   -6.3776225811
C       -13.9171202489    2.8981521005  -11.2017294049
H       -13.6016615209    1.9047102561  -10.8820174716
H       -13.7841851014    2.9620542798  -12.2824861443
H       -14.9846952046    2.9946895352  -11.0000967258
C       -13.5906271629    5.3745843949  -10.9469107527
H       -14.6504669151    5.5186395726  -10.7357191254
H       -13.4594461242    5.4940081414  -12.0227882080
H       -13.0358602388    6.1698462999  -10.4489967287
