174
 Final energy is   -3629.18755703986     
N         0.0865424550   -0.0835214806    0.2578867148
C        -0.0550538745   -0.1074479589    1.6433645845
C         1.3567651030   -0.1686123480   -0.3073275566
C         2.3837556423   -0.7803471549    0.4248077502
C         3.6645080179   -0.7867451777   -0.1115917752
H         4.4754121948   -1.2390047020    0.4431900380
C         3.9323654620   -0.2569633466   -1.3659155232
H         4.9374788980   -0.2877165707   -1.7650381161
C         2.8947720218    0.2852568540   -2.1066684079
H         3.0769875528    0.6836143900   -3.0968610285
C         1.6150174612    0.3376264281   -1.5823831605
H         0.8188828042    0.7815402624   -2.1637795218
C         0.9379062147   -0.7260794123    2.4143571751
C         0.8267167374   -0.6748062348    3.7972302258
H         1.5890524474   -1.1329224475    4.4128465825
C        -0.2599389660   -0.0766571920    4.4194426381
H        -0.3266074751   -0.0623801137    5.4991305587
C        -1.2634876231    0.4792918939    3.6426457773
H        -2.1283376391    0.9356040484    4.1076582978
C        -1.1629431226    0.4727492320    2.2626261088
H        -1.9419564284    0.9294851050    1.6675751671
C        -1.0361024765    0.2227036200   -0.5620993449
C        -1.3631634143    1.5290058207   -0.8903081791
H        -0.7526577215    2.3434095879   -0.5146118502
C        -1.8122364667   -0.8164853836   -1.0434812669
H        -1.5489016312   -1.8364029722   -0.7836790750
C        -2.4601980637    1.7983442041   -1.7025564292
C        -2.9175711333   -0.5671668955   -1.8499883594
C        -3.2567881315    0.7504590129   -2.1943145606
C        -3.7588558071   -1.7367411064   -2.2933321642
H        -3.1216907306   -2.6173908117   -2.4132002481
H        -4.1957910709   -1.5399217611   -3.2739025010
C        -2.7288446601    3.2271323766   -2.0957156297
H        -3.8024479899    3.3949270528   -2.1992999041
H        -2.3874987805    3.8956773987   -1.3009376215
C         1.9960179265   -1.5319933559    1.6846353228
C        -4.8745877557   -2.0546168315   -1.2998293197
H        -5.4527589794   -2.9203895500   -1.6259506186
H        -5.5634098386   -1.2154103273   -1.2010057600
H        -4.4712225756   -2.2742871769   -0.3100999024
C        -2.0298528104    3.5964923726   -3.4027234144
H        -2.3824086852    2.9729841677   -4.2243938841
H        -2.2194256715    4.6372509144   -3.6695320175
H        -0.9498776644    3.4619122188   -3.3217078795
C         1.3555348868   -2.8692361046    1.2520418727
H         0.4844449814   -2.7177546576    0.6142777972
H         1.0340293733   -3.4362353784    2.1276834727
H         2.0745824540   -3.4725680461    0.6944280190
C         3.1979109529   -1.8486099890    2.5673085228
H         3.7002257522   -0.9452058893    2.9153707951
H         2.8964398943   -2.4318589060    3.4371499544
H         3.9230536707   -2.4590489042    2.0300246957
B        -4.5071946452    1.0521320187   -3.1204036703
C        -4.4171556898    0.8778363958   -4.6436549361
C        -3.2543137427    0.4032634120   -5.2519556126
H        -2.4087969279    0.2081883001   -4.6053355912
C        -3.1348136073    0.1667901011   -6.6182360085
C        -4.2631857879    0.4241201366   -7.4421158987
C        -5.4059522245    0.9448111419   -6.8506542974
H        -6.2571852871    1.1851348240   -7.4748681842
C        -5.5361719454    1.1817194126   -5.4806904125
C        -1.8999906324   -0.3219180009   -7.2180353710
C        -1.8256139545   -0.5300709419   -8.6070756278
C        -0.6070197373   -0.9676586654   -9.1467577487
H        -0.5089179805   -1.1264421648  -10.2114675955
C         0.4927224821   -1.2096991487   -8.3594016580
H         1.4144642806   -1.5490722590   -8.8173467084
C         0.4265041833   -1.0271256866   -6.9743429383
C        -0.7634840565   -0.5867896331   -6.4372685647
H        -0.8086314293   -0.4460859752   -5.3661658261
C        -4.2023134972    0.1370979115   -8.8710532372
C        -5.3302153159    0.2805151857   -9.6972014968
H        -6.2720228767    0.5915069687   -9.2647427499
C        -5.3068231170    0.0176405183  -11.0498223012
C        -4.1005609422   -0.4098402538  -11.6125127727
H        -4.0444734260   -0.6281864177  -12.6727113725
C        -2.9855839575   -0.5731480261  -10.8260417367
H        -2.0816728626   -0.9236894424  -11.3035716250
C        -3.0023324530   -0.3150127228   -9.4461033077
C        -6.5325887328    0.1761824197  -11.9013692619
H        -7.4104926673    0.4174087138  -11.3017862901
H        -6.4039120744    0.9720388733  -12.6385174770
H        -6.7541763216   -0.7374402726  -12.4553257159
C         1.6196873782   -1.3012100020   -6.1080871036
H         1.3944443417   -1.1510375431   -5.0526308447
H         2.4545526711   -0.6468024781   -6.3658799807
H         1.9686395226   -2.3282009742   -6.2282530967
C        -5.8399742387    1.5249439133   -2.5210927466
C        -6.0264150597    1.5977665914   -1.1409173697
H        -5.1902598568    1.3045265736   -0.5200462806
C        -7.2121739932    2.0099491891   -0.5401473019
C        -8.2718905670    2.4441527616   -1.3799165068
C        -8.1034744788    2.3497972283   -2.7553501474
H        -8.9198094257    2.6329626118   -3.4078499180
C        -6.9374348110    1.8829518200   -3.3660880950
C        -9.4997868872    2.9616106576   -0.7878512429
C       -10.5374332055    3.4721869265   -1.5854224852
H       -10.4224941312    3.4914159337   -2.6609896838
C       -11.7105333718    3.9693125360   -1.0613121356
C       -11.8574196017    3.9687881757    0.3292037604
H       -12.7637250772    4.3577127088    0.7786297032
C       -10.8551219024    3.4830411023    1.1343832709
H       -11.0101399534    3.5125220974    2.2035653024
C        -9.6605421805    2.9672765205    0.6079629369
C        -7.4014330249    1.9798110854    0.9030656083
C        -8.6045035208    2.4402183156    1.4670908255
C        -8.7555883522    2.3620182552    2.8590553616
H        -9.6713105469    2.6956299435    3.3267946999
C        -7.7695730581    1.8534193284    3.6705967336
H        -7.9298219020    1.8050881482    4.7412464235
C        -6.5707708906    1.3870690804    3.1219080374
C        -6.4153604092    1.4588954070    1.7549224113
H        -5.4952667739    1.0771785466    1.3341622646
C       -12.7989718452    4.5017903179   -1.9472544283
H       -12.5182894970    4.4507427482   -2.9996690331
H       -13.0258296742    5.5445145792   -1.7183623268
H       -13.7253652499    3.9376869728   -1.8214460006
C        -5.4882198811    0.8298286327    3.9976443053
H        -4.7248720861    0.3169718827    3.4129224786
H        -4.9932587567    1.6217661313    4.5641924001
H        -5.8870836482    0.1181874894    4.7215907822
B        -6.8318308480    1.7344778174   -4.8836353577
C        -8.0430019826    2.1267424749   -5.8357792955
C        -8.9127219971    1.1422499614   -6.3370515091
C        -9.9287932507    1.4846020819   -7.2216689535
H       -10.5889499032    0.7234935850   -7.6236041118
C       -10.0864107449    2.8045275018   -7.5939509610
C        -9.2662425391    3.8010119054   -7.1040054377
H        -9.4099002157    4.8298330319   -7.4154497512
C        -8.2418601757    3.4628612860   -6.2260452783
N       -11.1091701997    3.1315613412   -8.5505528584
C       -12.4033026145    3.2851364621   -8.1131161621
C       -10.7486521468    3.2455711549   -9.8738338361
C       -11.7219333918    3.5331724411  -10.8496816353
C       -11.3019217034    3.6489305531  -12.1667839944
H       -12.0263053744    3.8688299968  -12.9393592113
C        -9.9754878535    3.4836986009  -12.5270219901
H        -9.6836276969    3.5822775768  -13.5637061303
C        -9.0233466019    3.1812878313  -11.5561523063
H        -7.9873121195    3.0392457299  -11.8299323786
C        -9.3999779838    3.0557413976  -10.2422705465
H        -8.6580438163    2.8111253766   -9.4972325628
C       -13.4363055360    3.5476793127   -9.0345609402
C       -14.7257099030    3.6731778612   -8.5394190143
H       -15.5416669232    3.8673278071   -9.2227903299
C       -15.0035923512    3.5547758122   -7.1879324540
H       -16.0217354308    3.6571674497   -6.8380100529
C       -13.9723968750    3.3092044949   -6.2835222546
H       -14.1801169184    3.2230994207   -5.2260344289
C       -12.6830114768    3.1764694265   -6.7348337261
H       -11.8859351737    2.9891842592   -6.0309225142
C        -8.8087460640   -0.2966982300   -5.9065047869
H        -9.1087479729   -0.9485286520   -6.7317361941
H        -7.7724088441   -0.5452875943   -5.6753244352
C        -7.3060192109    4.5525380548   -5.7797405276
H        -6.9111189392    4.3238471481   -4.7892178478
H        -7.8545777393    5.4938834430   -5.6884728205
C       -13.1857594187    3.6846998413  -10.5167446555
C        -9.6846286244   -0.5847941724   -4.6887309077
H        -9.3821230494    0.0238782707   -3.8368334900
H        -9.6042729087   -1.6311021709   -4.3932477574
H       -10.7356701695   -0.3756270257   -4.8969703144
C        -6.1505842024    4.7276496700   -6.7637355635
H        -5.5719587027    3.8083765636   -6.8512773251
H        -6.5155968858    4.9915576071   -7.7581657484
H        -5.4738277716    5.5166770943   -6.4350462653
C       -13.9745637250    2.5836271648  -11.2564816641
H       -13.6562998355    1.5901780204  -10.9419514909
H       -13.8307535498    2.6610556816  -12.3335837796
H       -15.0426528356    2.6761726472  -11.0629205677
C       -13.6706688182    5.0716884805  -10.9824800158
H       -14.7329030157    5.2001834471  -10.7797380874
H       -13.5314454690    5.1914650049  -12.0560283645
H       -13.1283916405    5.8702358936  -10.4776459899
