174
 Final energy is   -3629.18225838275     
N         0.0860968545   -0.0835399132    0.2561214833
C        -0.0560816521   -0.1068330171    1.6415644755
C         1.3567719718   -0.1660342299   -0.3084643999
C         2.3847908931   -0.7748631462    0.4244981554
C         3.6656891009   -0.7786863589   -0.1113137153
H         4.4773930526   -1.2284084799    0.4443309296
C         3.9329013641   -0.2491961649   -1.3657596038
H         4.9382600014   -0.2777764535   -1.7643663367
C         2.8944172849    0.2899500912   -2.1072873674
H         3.0761807741    0.6880889583   -3.0976374629
C         1.6143863401    0.3396946316   -1.5837452644
H         0.8173341722    0.7811336258   -2.1657196132
C         0.9378313164   -0.7226772352    2.4133974702
C         0.8257484968   -0.6708786415    3.7960800669
H         1.5888913320   -1.1267433571    4.4123412500
C        -0.2624642767   -0.0748978752    4.4173587238
H        -0.3297126678   -0.0600621713    5.4969796357
C        -1.2667503957    0.4782734714    3.6397369454
H        -2.1328071664    0.9329924605    4.1040401568
C        -1.1655652589    0.4711120053    2.2598902473
H        -1.9451754868    0.9256139622    1.6639610343
C        -1.0363009942    0.2227620226   -0.5641144183
C        -1.3630694080    1.5291036737   -0.8924315850
H        -0.7522992390    2.3432516238   -0.5166520755
C        -1.8127439936   -0.8161431176   -1.0453239505
H        -1.5496454910   -1.8360210106   -0.7852879976
C        -2.4600791245    1.7986966974   -1.7044867593
C        -2.9181383374   -0.5667070413   -1.8515838273
C        -3.2569906805    0.7509266951   -2.1958096815
C        -3.7601526310   -1.7358893649   -2.2945092932
H        -3.1234736571   -2.6169546502   -2.4140608324
H        -4.1967248163   -1.5393001263   -3.2752869983
C        -2.7285049881    3.2273727041   -2.0981406671
H        -3.8021593529    3.3957359912   -2.2002651870
H        -2.3858591147    3.8961943194   -1.3041408805
C         1.9980503244   -1.5265436451    1.6845946987
C        -4.8761447943   -2.0525747139   -1.3009454496
H        -5.4543564987   -2.9186328002   -1.6262440844
H        -5.5649585265   -1.2132746110   -1.2031409037
H        -4.4730764297   -2.2712341397   -0.3108875911
C        -2.0309913238    3.5953215299   -3.4063274958
H        -2.3854278001    2.9719243708   -4.2272439385
H        -2.2196558395    4.6361959377   -3.6733644818
H        -0.9510714620    3.4595058998   -3.3268595189
C         1.3609519967   -2.8655189862    1.2525147639
H         0.4900446279   -2.7161796390    0.6140699189
H         1.0396873590   -3.4326044550    2.1281962336
H         2.0815739681   -3.4676362492    0.6956205513
C         3.2002557505   -1.8398701215    2.5679567626
H         3.7002431558   -0.9350402452    2.9156305847
H         2.8999547106   -2.4233442989    3.4380618125
H         3.9270217544   -2.4490402499    2.0313957036
B        -4.5079557468    1.0530322311   -3.1206701681
C        -4.4202324242    0.8770711069   -4.6439368717
C        -3.2589065348    0.4011698647   -5.2535612656
H        -2.4124363994    0.2065344998   -4.6080800404
C        -3.1418858036    0.1631113154   -6.6198471913
C        -4.2716685264    0.4197887851   -7.4417082985
C        -5.4128695776    0.9420161405   -6.8490103838
H        -6.2648150773    1.1824895069   -7.4722512926
C        -5.5403928796    1.1809709314   -5.4791633068
C        -1.9083361725   -0.3258738532   -7.2215433274
C        -1.8359907581   -0.5337811492   -8.6106834676
C        -0.6179273242   -0.9699754932   -9.1523738599
H        -0.5212860684   -1.1276777107  -10.2173721904
C         0.4830783722   -1.2116979035   -8.3668997604
H         1.4045046436   -1.5498307214   -8.8263897273
C         0.4185865956   -1.0304319950   -6.9816699419
C        -0.7706487085   -0.5908454070   -6.4426831631
H        -0.8144851367   -0.4507542862   -5.3714793615
C        -4.2136456475    0.1308750949   -8.8702501327
C        -5.3436262204    0.2713018456   -9.6939373506
H        -6.2849949963    0.5801565896   -9.2589698928
C        -5.3229788036    0.0070484282  -11.0461812846
C        -4.1173855668   -0.4186711084  -11.6113238748
H        -4.0633163472   -0.6380499757  -12.6714243842
C        -3.0005421870   -0.5794972355  -10.8271622728
H        -2.0971731637   -0.9293330766  -11.3061769270
C        -3.0144368913   -0.3202399490   -9.4474775889
C        -6.5513837465    0.1610847976  -11.8948916511
H        -7.4271842972    0.4074078109  -11.2941614937
H        -6.4243978072    0.9512521449  -12.6385073635
H        -6.7763568301   -0.7562731249  -12.4413355602
C         1.6124805127   -1.3065488184   -6.1170585793
H         1.3933212963   -1.1419750985   -5.0624736746
H         2.4531954621   -0.6642084507   -6.3857689466
H         1.9499734612   -2.3386482195   -6.2261733809
C        -5.8394618161    1.5274867475   -2.5194759617
C        -6.0241020938    1.5996387799   -1.1392971749
H        -5.1872691948    1.3056273419   -0.5197453788
C        -7.2091353733    2.0116602335   -0.5368621070
C        -8.2691213990    2.4475267137   -1.3750968588
C        -8.1022871488    2.3544261541   -2.7506903087
H        -8.9193135633    2.6385396135   -3.4019752937
C        -6.9374838891    1.8866072266   -3.3629931093
C        -9.4960923337    2.9648746805   -0.7812081245
C       -10.5335668265    3.4783345552   -1.5769479262
H       -10.4184628614    3.5004096189   -2.6524424622
C       -11.7059666313    3.9750617872   -1.0512689822
C       -11.8523225612    3.9715044517    0.3391451468
H       -12.7579803051    4.3603719934    0.7899392240
C       -10.8500425632    3.4831330995    1.1425851318
H       -11.0041317407    3.5107104734    2.2119282659
C        -9.6562519118    2.9673965859    0.6146022941
C        -7.3974599607    1.9787119766    0.9062428119
C        -8.6002994391    2.4376343324    1.4719799088
C        -8.7511740672    2.3550276620    2.8635114021
H        -9.6671640678    2.6864617137    3.3322520305
C        -7.7649428914    1.8442880753    3.6733716967
H        -7.9250389848    1.7923463226    4.7438588130
C        -6.5661708376    1.3802702174    3.1231228083
C        -6.4111896156    1.4557738551    1.7563563880
H        -5.4913336060    1.0751453650    1.3341356654
C       -12.7944390317    4.5102407691   -1.9356226471
H       -12.5120498144    4.4656796115   -2.9879375044
H       -13.0238567188    5.5512941614   -1.7017051762
H       -13.7198901967    3.9434678705   -1.8144402750
C        -5.4820132100    0.8228851094    3.9967883850
H        -4.7314541055    0.2903739834    3.4130471009
H        -4.9705689166    1.6175377989    4.5447211554
H        -5.8822737582    0.1287299982    4.7366889564
B        -6.8334121532    1.7363110533   -4.8799777394
C        -8.0445891553    2.1292392803   -5.8317829008
C        -8.9160604643    1.1452991755   -6.3313615882
C        -9.9308650037    1.4877691101   -7.2172360411
H       -10.5924272235    0.7270502780   -7.6176759915
C       -10.0843242593    2.8070923128   -7.5937882112
C        -9.2622055386    3.8030813292   -7.1058501786
H        -9.4027655804    4.8314125534   -7.4203871539
C        -8.2402864359    3.4649943228   -6.2251178973
N       -11.1047470652    3.1336898029   -8.5528020513
C       -12.4002371168    3.2856099466   -8.1185495158
C       -10.7413629813    3.2484923093   -9.8752431730
C       -11.7124757235    3.5359169225  -10.8532972239
C       -11.2893173564    3.6522033325  -12.1692557776
H       -12.0120022044    3.8718626681  -12.9435206462
C        -9.9619762331    3.4873552753  -12.5264590677
H        -9.6677332300    3.5862038407  -13.5624369587
C        -9.0121935802    3.1843354436  -11.5536513019
H        -7.9755979435    3.0415501014  -11.8249174980
C        -9.3919393753    3.0582634982  -10.2406922493
H        -8.6521864419    2.8124423633   -9.4938491101
C       -13.4314155717    3.5470534278   -9.0421897432
C       -14.7219964192    3.6708534692   -8.5498543999
H       -15.5366167269    3.8642323553   -9.2350459249
C       -15.0027710036    3.5520143190   -7.1990065244
H       -16.0218097253    3.6531286214   -6.8513375801
C       -13.9733104625    3.3081892616   -6.2923768999
H       -14.1830042003    3.2224043011   -5.2352636171
C       -12.6827133144    3.1772813190   -6.7408577384
H       -11.8864302762    2.9918891390   -6.0355296281
C        -8.8141088256   -0.2929197098   -5.8981598967
H        -9.1174740538   -0.9457829282   -6.7214137820
H        -7.7776148640   -0.5428172235   -5.6693433646
C        -7.3031269032    4.5535393972   -5.7790350384
H        -6.9126081266    4.3264667977   -4.7864496340
H        -7.8495370656    5.4966334411   -5.6924637529
C       -13.1774960619    3.6854043427  -10.5238044385
C        -9.6871992969   -0.5766362672   -4.6773775682
H        -9.3800946998    0.0319572786   -3.8271502191
H        -9.6089544302   -1.6227819471   -4.3808822568
H       -10.7383522684   -0.3647954417   -4.8824989996
C        -6.1436128838    4.7222043912   -6.7593809777
H        -5.5670847038    3.8012063503   -6.8415754178
H        -6.5039666974    4.9840807017   -7.7560957451
H        -5.4660406508    5.5104413986   -6.4305924836
C       -13.9629537674    2.5836364515  -11.2659575538
H       -13.6435558892    1.5904355734  -10.9518509401
H       -13.8175329682    2.6618836686  -12.3427829139
H       -15.0316196131    2.6735633806  -11.0743154852
C       -13.6631269663    5.0720600875  -10.9896002571
H       -14.7260130872    5.1994317626  -10.7895146887
H       -13.5214276921    5.1933722353  -12.0626539724
H       -13.1233164950    5.8710434193  -10.4828533712
174
 Final energy is   -3629.18755703986     
N         0.0865424550   -0.0835214806    0.2578867148
C        -0.0550538745   -0.1074479589    1.6433645845
C         1.3567651030   -0.1686123480   -0.3073275566
C         2.3837556423   -0.7803471549    0.4248077502
C         3.6645080179   -0.7867451777   -0.1115917752
H         4.4754121948   -1.2390047020    0.4431900380
C         3.9323654620   -0.2569633466   -1.3659155232
H         4.9374788980   -0.2877165707   -1.7650381161
C         2.8947720218    0.2852568540   -2.1066684079
H         3.0769875528    0.6836143900   -3.0968610285
C         1.6150174612    0.3376264281   -1.5823831605
H         0.8188828042    0.7815402624   -2.1637795218
C         0.9379062147   -0.7260794123    2.4143571751
C         0.8267167374   -0.6748062348    3.7972302258
H         1.5890524474   -1.1329224475    4.4128465825
C        -0.2599389660   -0.0766571920    4.4194426381
H        -0.3266074751   -0.0623801137    5.4991305587
C        -1.2634876231    0.4792918939    3.6426457773
H        -2.1283376391    0.9356040484    4.1076582978
C        -1.1629431226    0.4727492320    2.2626261088
H        -1.9419564284    0.9294851050    1.6675751671
C        -1.0361024765    0.2227036200   -0.5620993449
C        -1.3631634143    1.5290058207   -0.8903081791
H        -0.7526577215    2.3434095879   -0.5146118502
C        -1.8122364667   -0.8164853836   -1.0434812669
H        -1.5489016312   -1.8364029722   -0.7836790750
C        -2.4601980637    1.7983442041   -1.7025564292
C        -2.9175711333   -0.5671668955   -1.8499883594
C        -3.2567881315    0.7504590129   -2.1943145606
C        -3.7588558071   -1.7367411064   -2.2933321642
H        -3.1216907306   -2.6173908117   -2.4132002481
H        -4.1957910709   -1.5399217611   -3.2739025010
C        -2.7288446601    3.2271323766   -2.0957156297
H        -3.8024479899    3.3949270528   -2.1992999041
H        -2.3874987805    3.8956773987   -1.3009376215
C         1.9960179265   -1.5319933559    1.6846353228
C        -4.8745877557   -2.0546168315   -1.2998293197
H        -5.4527589794   -2.9203895500   -1.6259506186
H        -5.5634098386   -1.2154103273   -1.2010057600
H        -4.4712225756   -2.2742871769   -0.3100999024
C        -2.0298528104    3.5964923726   -3.4027234144
H        -2.3824086852    2.9729841677   -4.2243938841
H        -2.2194256715    4.6372509144   -3.6695320175
H        -0.9498776644    3.4619122188   -3.3217078795
C         1.3555348868   -2.8692361046    1.2520418727
H         0.4844449814   -2.7177546576    0.6142777972
H         1.0340293733   -3.4362353784    2.1276834727
H         2.0745824540   -3.4725680461    0.6944280190
C         3.1979109529   -1.8486099890    2.5673085228
H         3.7002257522   -0.9452058893    2.9153707951
H         2.8964398943   -2.4318589060    3.4371499544
H         3.9230536707   -2.4590489042    2.0300246957
B        -4.5071946452    1.0521320187   -3.1204036703
C        -4.4171556898    0.8778363958   -4.6436549361
C        -3.2543137427    0.4032634120   -5.2519556126
H        -2.4087969279    0.2081883001   -4.6053355912
C        -3.1348136073    0.1667901011   -6.6182360085
C        -4.2631857879    0.4241201366   -7.4421158987
C        -5.4059522245    0.9448111419   -6.8506542974
H        -6.2571852871    1.1851348240   -7.4748681842
C        -5.5361719454    1.1817194126   -5.4806904125
C        -1.8999906324   -0.3219180009   -7.2180353710
C        -1.8256139545   -0.5300709419   -8.6070756278
C        -0.6070197373   -0.9676586654   -9.1467577487
H        -0.5089179805   -1.1264421648  -10.2114675955
C         0.4927224821   -1.2096991487   -8.3594016580
H         1.4144642806   -1.5490722590   -8.8173467084
C         0.4265041833   -1.0271256866   -6.9743429383
C        -0.7634840565   -0.5867896331   -6.4372685647
H        -0.8086314293   -0.4460859752   -5.3661658261
C        -4.2023134972    0.1370979115   -8.8710532372
C        -5.3302153159    0.2805151857   -9.6972014968
H        -6.2720228767    0.5915069687   -9.2647427499
C        -5.3068231170    0.0176405183  -11.0498223012
C        -4.1005609422   -0.4098402538  -11.6125127727
H        -4.0444734260   -0.6281864177  -12.6727113725
C        -2.9855839575   -0.5731480261  -10.8260417367
H        -2.0816728626   -0.9236894424  -11.3035716250
C        -3.0023324530   -0.3150127228   -9.4461033077
C        -6.5325887328    0.1761824197  -11.9013692619
H        -7.4104926673    0.4174087138  -11.3017862901
H        -6.4039120744    0.9720388733  -12.6385174770
H        -6.7541763216   -0.7374402726  -12.4553257159
C         1.6196873782   -1.3012100020   -6.1080871036
H         1.3944443417   -1.1510375431   -5.0526308447
H         2.4545526711   -0.6468024781   -6.3658799807
H         1.9686395226   -2.3282009742   -6.2282530967
C        -5.8399742387    1.5249439133   -2.5210927466
C        -6.0264150597    1.5977665914   -1.1409173697
H        -5.1902598568    1.3045265736   -0.5200462806
C        -7.2121739932    2.0099491891   -0.5401473019
C        -8.2718905670    2.4441527616   -1.3799165068
C        -8.1034744788    2.3497972283   -2.7553501474
H        -8.9198094257    2.6329626118   -3.4078499180
C        -6.9374348110    1.8829518200   -3.3660880950
C        -9.4997868872    2.9616106576   -0.7878512429
C       -10.5374332055    3.4721869265   -1.5854224852
H       -10.4224941312    3.4914159337   -2.6609896838
C       -11.7105333718    3.9693125360   -1.0613121356
C       -11.8574196017    3.9687881757    0.3292037604
H       -12.7637250772    4.3577127088    0.7786297032
C       -10.8551219024    3.4830411023    1.1343832709
H       -11.0101399534    3.5125220974    2.2035653024
C        -9.6605421805    2.9672765205    0.6079629369
C        -7.4014330249    1.9798110854    0.9030656083
C        -8.6045035208    2.4402183156    1.4670908255
C        -8.7555883522    2.3620182552    2.8590553616
H        -9.6713105469    2.6956299435    3.3267946999
C        -7.7695730581    1.8534193284    3.6705967336
H        -7.9298219020    1.8050881482    4.7412464235
C        -6.5707708906    1.3870690804    3.1219080374
C        -6.4153604092    1.4588954070    1.7549224113
H        -5.4952667739    1.0771785466    1.3341622646
C       -12.7989718452    4.5017903179   -1.9472544283
H       -12.5182894970    4.4507427482   -2.9996690331
H       -13.0258296742    5.5445145792   -1.7183623268
H       -13.7253652499    3.9376869728   -1.8214460006
C        -5.4882198811    0.8298286327    3.9976443053
H        -4.7248720861    0.3169718827    3.4129224786
H        -4.9932587567    1.6217661313    4.5641924001
H        -5.8870836482    0.1181874894    4.7215907822
B        -6.8318308480    1.7344778174   -4.8836353577
C        -8.0430019826    2.1267424749   -5.8357792955
C        -8.9127219971    1.1422499614   -6.3370515091
C        -9.9287932507    1.4846020819   -7.2216689535
H       -10.5889499032    0.7234935850   -7.6236041118
C       -10.0864107449    2.8045275018   -7.5939509610
C        -9.2662425391    3.8010119054   -7.1040054377
H        -9.4099002157    4.8298330319   -7.4154497512
C        -8.2418601757    3.4628612860   -6.2260452783
N       -11.1091701997    3.1315613412   -8.5505528584
C       -12.4033026145    3.2851364621   -8.1131161621
C       -10.7486521468    3.2455711549   -9.8738338361
C       -11.7219333918    3.5331724411  -10.8496816353
C       -11.3019217034    3.6489305531  -12.1667839944
H       -12.0263053744    3.8688299968  -12.9393592113
C        -9.9754878535    3.4836986009  -12.5270219901
H        -9.6836276969    3.5822775768  -13.5637061303
C        -9.0233466019    3.1812878313  -11.5561523063
H        -7.9873121195    3.0392457299  -11.8299323786
C        -9.3999779838    3.0557413976  -10.2422705465
H        -8.6580438163    2.8111253766   -9.4972325628
C       -13.4363055360    3.5476793127   -9.0345609402
C       -14.7257099030    3.6731778612   -8.5394190143
H       -15.5416669232    3.8673278071   -9.2227903299
C       -15.0035923512    3.5547758122   -7.1879324540
H       -16.0217354308    3.6571674497   -6.8380100529
C       -13.9723968750    3.3092044949   -6.2835222546
H       -14.1801169184    3.2230994207   -5.2260344289
C       -12.6830114768    3.1764694265   -6.7348337261
H       -11.8859351737    2.9891842592   -6.0309225142
C        -8.8087460640   -0.2966982300   -5.9065047869
H        -9.1087479729   -0.9485286520   -6.7317361941
H        -7.7724088441   -0.5452875943   -5.6753244352
C        -7.3060192109    4.5525380548   -5.7797405276
H        -6.9111189392    4.3238471481   -4.7892178478
H        -7.8545777393    5.4938834430   -5.6884728205
C       -13.1857594187    3.6846998413  -10.5167446555
C        -9.6846286244   -0.5847941724   -4.6887309077
H        -9.3821230494    0.0238782707   -3.8368334900
H        -9.6042729087   -1.6311021709   -4.3932477574
H       -10.7356701695   -0.3756270257   -4.8969703144
C        -6.1505842024    4.7276496700   -6.7637355635
H        -5.5719587027    3.8083765636   -6.8512773251
H        -6.5155968858    4.9915576071   -7.7581657484
H        -5.4738277716    5.5166770943   -6.4350462653
C       -13.9745637250    2.5836271648  -11.2564816641
H       -13.6562998355    1.5901780204  -10.9419514909
H       -13.8307535498    2.6610556816  -12.3335837796
H       -15.0426528356    2.6761726472  -11.0629205677
C       -13.6706688182    5.0716884805  -10.9824800158
H       -14.7329030157    5.2001834471  -10.7797380874
H       -13.5314454690    5.1914650049  -12.0560283645
H       -13.1283916405    5.8702358936  -10.4776459899
174
 Final energy is   -3629.28571251106     
N         0.1342381913    0.1756720524    0.2119580228
C        -0.0115167520    0.1310445069    1.5942062947
C         1.3264144719   -0.1802035196   -0.4093619288
C         2.4176886687   -0.6299457020    0.3398788294
C         3.5816097222   -0.9781856190   -0.3411363674
H         4.4315454910   -1.3397039047    0.2243445995
C         3.6935405789   -0.8939211940   -1.7179432197
H         4.6142820351   -1.1766999218   -2.2102779343
C         2.6036801228   -0.4463668244   -2.4489710564
H         2.6579017053   -0.3686745969   -3.5276298280
C         1.4336485983   -0.0949772777   -1.8046185724
H         0.5945564400    0.2487360764   -2.3931862417
C         1.0326775602   -0.3155065953    2.4102485454
C         0.8200191012   -0.3500647792    3.7856469734
H         1.6145824457   -0.7059605794    4.4299693757
C        -0.3744022370    0.0419652400    4.3650030127
H        -0.5018242048   -0.0029136626    5.4381859031
C        -1.3983677157    0.4900264597    3.5444621001
H        -2.3432281044    0.8089205205    3.9663955521
C        -1.2209028548    0.5348540731    2.1756198849
H        -2.0304612273    0.8883038319    1.5521926934
C        -1.0169725126    0.3939121602   -0.5957218332
C        -1.3260609401    1.6617732313   -1.0602701196
H        -0.6849980792    2.4962269838   -0.7982228405
C        -1.8248308135   -0.6811358559   -0.9264295711
H        -1.5694329466   -1.6694886021   -0.5593664028
C        -2.4400902003    1.8599944845   -1.8688663955
C        -2.9486776024   -0.5036346927   -1.7255188860
C        -3.2607916608    0.7745470151   -2.2043464629
C        -3.8241750107   -1.6935527830   -2.0287849424
H        -3.1968320603   -2.5511438046   -2.2855471220
H        -4.4390277721   -1.5028493359   -2.9127363434
C        -2.7031506843    3.2317954198   -2.4336821565
H        -3.7718834697    3.3722465913   -2.6212467187
H        -2.4301420008    3.9910963916   -1.6969888337
C         2.3625736926   -0.7885393106    1.8486353223
C        -4.7321824110   -2.0710729844   -0.8599055294
H        -5.3423200337   -2.9399314125   -1.1083351766
H        -5.4091907549   -1.2558791275   -0.6029750370
H        -4.1503696970   -2.3155409504    0.0296192279
C        -1.9247900275    3.4769309425   -3.7250540757
H        -2.1981878114    2.7542247985   -4.4940102064
H        -2.1264352339    4.4739747483   -4.1176715740
H        -0.8504874140    3.3930067507   -3.5564708805
C         2.5407011584   -2.2779968125    2.1906869190
H         1.7423609205   -2.8748949116    1.7482110398
H         2.5247228059   -2.4392591322    3.2693534725
H         3.4922962609   -2.6583857670    1.8165579171
C         3.4972572827    0.0323530047    2.4813977751
H         3.3848246360    1.0910359782    2.2467356907
H         3.5071359741   -0.0750431975    3.5662054084
H         4.4725726407   -0.2922854119    2.1179628366
B        -4.5141381159    1.0071200883   -3.1237486622
C        -4.4240644511    0.7992937177   -4.6600160591
C        -3.3077455963    0.2261341968   -5.2376109412
H        -2.4863919288   -0.0396787388   -4.5865502081
C        -3.2068969432   -0.0352155769   -6.6152154472
C        -4.2753925246    0.3483544387   -7.4461205079
C        -5.3897084584    0.9653965786   -6.8567532122
H        -6.2147742101    1.2794276577   -7.4808977174
C        -5.5035550285    1.1763891087   -5.4981634352
C        -2.0435006199   -0.6955635918   -7.1873911912
C        -1.9876282164   -0.9316734118   -8.5725496765
C        -0.8507478368   -1.5763105612   -9.0872264037
H        -0.7679463686   -1.7746362096  -10.1460843397
C         0.1797851200   -1.9803879191   -8.2761653787
H         1.0372352655   -2.4788577311   -8.7126134828
C         0.1315417915   -1.7616124737   -6.8938522375
C        -0.9750139382   -1.1225149950   -6.3811137311
H        -1.0078025427   -0.9601757207   -5.3127007610
C        -4.2251272420    0.0898197464   -8.8774397931
C        -5.2949391354    0.4327931112   -9.7229440975
H        -6.1813374397    0.8977424187   -9.3135095570
C        -5.2790444515    0.1868646367  -11.0779737649
C        -4.1406525209   -0.4239718163  -11.6181796830
H        -4.0951598697   -0.6323011578  -12.6806513271
C        -3.0828472487   -0.7724551464  -10.8161094233
H        -2.2323344498   -1.2479380348  -11.2827297599
C        -3.0940935686   -0.5338391062   -9.4313104852
C        -6.4357094540    0.5575986174  -11.9567455017
H        -7.2994739533    0.8759150601  -11.3743494317
H        -6.1723851495    1.3748407759  -12.6315307751
H        -6.7457427382   -0.2827064983  -12.5792295724
C         1.2529527289   -2.2186110583   -6.0107911354
H         1.0715411946   -1.9670654983   -4.9664361793
H         2.1990603776   -1.7615513077   -6.3056798199
H         1.3869426027   -3.2998037470   -6.0729356357
C        -5.8716861933    1.4508407449   -2.5155269899
C        -6.0699377500    1.4518586175   -1.1493929668
H        -5.2343628973    1.1744593166   -0.5222024151
C        -7.3003313934    1.7848515337   -0.5557794558
C        -8.3445184621    2.2251207966   -1.3877798307
C        -8.1318546686    2.2344753302   -2.7760812056
H        -8.9287393816    2.5468117281   -3.4363075866
C        -6.9467438060    1.8338544270   -3.3574045852
C        -9.6142053772    2.6402995372   -0.8128116342
C       -10.6579598873    3.1258215973   -1.6192142469
H       -10.5253438161    3.1989167745   -2.6899237874
C       -11.8702773758    3.5260839929   -1.1034373881
C       -12.0473540580    3.4492502821    0.2837607745
H       -12.9860119751    3.7637764244    0.7243683630
C       -11.0441720236    2.9810719411    1.0956838816
H       -11.2304353377    2.9467127407    2.1594534428
C        -9.8085308632    2.5596463072    0.5764295481
C        -7.5174768292    1.6586777256    0.8757254357
C        -8.7526850837    2.0372118347    1.4301741764
C        -8.9327272506    1.8725953077    2.8131579196
H        -9.8696572056    2.1446990116    3.2775251818
C        -7.9458614877    1.3526286026    3.6132233875
H        -8.1281246956    1.2350181661    4.6748021135
C        -6.7151853967    0.9613756780    3.0709138097
C        -6.5280460247    1.1243599705    1.7168669137
H        -5.5811610369    0.8074228372    1.3016539281
C       -12.9742075923    4.0173406902   -1.9918429264
H       -12.6342346090    4.1505061245   -3.0186656495
H       -13.3699675503    4.9727036358   -1.6449359229
H       -13.8071568813    3.3116099221   -2.0077279572
C        -5.6434852584    0.3795009599    3.9421728164
H        -4.7877591892    0.0465072068    3.3555182345
H        -5.2848713366    1.1111395073    4.6686224586
H        -6.0139782727   -0.4779156224    4.5056237485
B        -6.8088355203    1.7673505860   -4.9001317911
C        -7.9782358286    2.2337676815   -5.8431433662
C        -8.8781564681    1.2964839165   -6.3674679436
C        -9.8710444718    1.7122747156   -7.2462451670
H       -10.5576255682    0.9897023101   -7.6748320755
C       -10.0007313852    3.0478981154   -7.5819699452
C        -9.1365662264    3.9852904422   -7.0426774875
H        -9.2464447426    5.0296844420   -7.3137057016
C        -8.1163422944    3.5857891002   -6.1869198326
N       -11.0042618566    3.4418157074   -8.5088312365
C       -12.3133914882    3.5983559624   -8.0710504769
C       -10.6650387115    3.5462747731   -9.8532261350
C       -11.6402454398    3.8250179084  -10.8172124452
C       -11.2430142320    3.9311212341  -12.1472839409
H       -11.9903816914    4.1445920520  -12.9016002345
C        -9.9292753733    3.7687763338  -12.5485138382
H        -9.6594079442    3.8610859303  -13.5919833011
C        -8.9737934170    3.4816226075  -11.5868178613
H        -7.9370091684    3.3448892563  -11.8662597013
C        -9.3349182751    3.3661351812  -10.2579678001
H        -8.5704312307    3.1371105331   -9.5295131118
C       -13.3455785987    3.8643773506   -8.9785980159
C       -14.6388394674    4.0051322513   -8.4837295143
H       -15.4455883728    4.2048065689   -9.1787904919
C       -14.9386462743    3.8939824017   -7.1375283977
H       -15.9576542608    4.0064330960   -6.7923909276
C       -13.9076840763    3.6360302814   -6.2475060160
H       -14.1064197838    3.5447922131   -5.1869924777
C       -12.6122513896    3.4915746876   -6.7058923337
H       -11.8248341422    3.2904380370   -5.9933163213
C        -8.8339681625   -0.1574655069   -5.9725824780
H        -8.9393986998   -0.7826041254   -6.8632960273
H        -7.8618643671   -0.4144977418   -5.5441856699
C        -7.1241893958    4.6126059117   -5.7109703464
H        -6.6966129247    4.3167236889   -4.7488903572
H        -7.6351794014    5.5617092913   -5.5316481321
C       -13.1117853724    3.9908732541  -10.4757722314
C        -9.9349800499   -0.5109248343   -4.9744907800
H        -9.8451062235    0.0797899440   -4.0620270951
H        -9.8851041524   -1.5639740549   -4.6964668851
H       -10.9236106461   -0.3233549302   -5.3956260876
C        -6.0037747442    4.8249139352   -6.7275714044
H        -5.4537745884    3.9005950144   -6.9078674543
H        -6.4046204829    5.1637639144   -7.6838203587
H        -5.2921992725    5.5733883399   -6.3776225811
C       -13.9171202489    2.8981521005  -11.2017294049
H       -13.6016615209    1.9047102561  -10.8820174716
H       -13.7841851014    2.9620542798  -12.2824861443
H       -14.9846952046    2.9946895352  -11.0000967258
C       -13.5906271629    5.3745843949  -10.9469107527
H       -14.6504669151    5.5186395726  -10.7357191254
H       -13.4594461242    5.4940081414  -12.0227882080
H       -13.0358602388    6.1698462999  -10.4489967287
