174
 Final energy is   -3629.18206557662     
N         0.1580365131   -0.0671486077    0.1327423496
C         0.1053588790   -0.2864917325    1.4896574825
C         1.3268378485   -0.1311259626   -0.5905308309
C         2.5379386142   -0.4539024728    0.0487375121
C         3.6841996177   -0.4966319612   -0.7319668782
H         4.6315407494   -0.7470901555   -0.2741468956
C         3.6506509350   -0.2403972749   -2.0931130191
H         4.5641514044   -0.2841441969   -2.6702262131
C         2.4421191853    0.0598963357   -2.7182449984
H         2.4045306112    0.2485834916   -3.7821620718
C         1.2865729499    0.1110750976   -1.9804291693
H         0.3508246247    0.3363669019   -2.4702473308
C         1.2673623406   -0.6539816521    2.1929719947
C         1.1416368428   -0.8998096568    3.5521195119
H         2.0106489937   -1.1992220754    4.1221361639
C        -0.0736776238   -0.7770213100    4.2064546254
H        -0.1339821201   -0.9787094390    5.2671181646
C        -1.2121591712   -0.3902324787    3.5020958671
H        -2.1607384623   -0.2806023831    4.0091437295
C        -1.1300989070   -0.1454318014    2.1546349888
H        -2.0102655835    0.1569091238    1.6066606561
C        -1.0677157574    0.1918080998   -0.5754066768
C        -1.4252743492    1.4910549361   -0.8784490405
H        -0.8022475817    2.3187516187   -0.5583207552
C        -1.8411165201   -0.8837938425   -0.9680086796
H        -1.5383489470   -1.8942465441   -0.7159124110
C        -2.5838847740    1.7231596085   -1.6138544145
C        -2.9976884594   -0.6593700170   -1.7072129069
C        -3.3772908309    0.6486772225   -2.0546399877
C        -3.8395874269   -1.8457568581   -2.0962745703
H        -3.2042264058   -2.7308230894   -2.1896832315
H        -4.2850028616   -1.6795682752   -3.0779486644
C        -2.9145946300    3.1424656034   -1.9906191037
H        -3.9963364663    3.2742693806   -2.0262485067
H        -2.5432134563    3.8212358799   -1.2182006085
C         2.6063702514   -0.8019050976    1.5145218715
C        -4.9472014828   -2.1208658692   -1.0815981460
H        -5.5297521863   -2.9949212539   -1.3736860966
H        -5.6340592738   -1.2775909108   -1.0118672301
H        -4.5384011124   -2.3085058071   -0.0870158659
C        -2.3120677340    3.5279653269   -3.3406860760
H        -2.6900618709    2.8865554710   -4.1363565127
H        -2.5647844879    4.5572917226   -3.5965656705
H        -1.2238122012    3.4435659091   -3.3280815006
C         3.0557136248   -2.2733449728    1.6341699707
H         2.3458263178   -2.9404150078    1.1451721852
H         3.1376130494   -2.5720358161    2.6787190853
H         4.0310630131   -2.4196259047    1.1711568836
C         3.6201560563    0.1279379782    2.2059120005
H         3.3059667682    1.1687123929    2.1345406195
H         3.7269287275   -0.1236620684    3.2600804690
H         4.6062055302    0.0391279689    1.7524031425
B        -4.6302255213    0.9219234817   -2.9922393413
C        -4.4912331525    0.7241783364   -4.5042776793
C        -3.3441954345    0.1674416482   -5.0792321083
H        -2.5321514327   -0.0917833527   -4.4118654008
C        -3.1995007806   -0.0776214977   -6.4394339724
C        -4.2540940387    0.3084858476   -7.3092447496
C        -5.3838265775    0.8932787602   -6.7485850782
H        -6.1935847589    1.2062727294   -7.3946928216
C        -5.5577187015    1.0961316372   -5.3815759149
C        -2.0148904302   -0.7257498482   -6.9909346168
C        -1.8962547046   -0.9130035607   -8.3795297288
C        -0.7373758496   -1.5363587095   -8.8666135382
H        -0.6102165785   -1.6928286003   -9.9283214995
C         0.2595029480   -1.9785737464   -8.0311718065
H         1.1341645555   -2.4620604526   -8.4505367587
C         0.1423954540   -1.8220592838   -6.6471653743
C        -0.9853244170   -1.1979064531   -6.1607216164
H        -1.0776609078   -1.0917486698   -5.0881251989
C        -4.1394323849    0.0832583416   -8.7442247526
C        -5.1797977043    0.4231855568   -9.6260130745
H        -6.0942242326    0.8501126858   -9.2368910552
C        -5.1021379202    0.2234704919  -10.9872528299
C        -3.9280607472   -0.3353727955  -11.5016581463
H        -3.8313636699   -0.5046540154  -12.5677918757
C        -2.8976603874   -0.6842629162  -10.6623983018
H        -2.0148274980   -1.1215512549  -11.1067400244
C        -2.9735837531   -0.4960929712   -9.2738312128
C        -6.2362789539    0.5919912243  -11.8972310140
H        -7.1258272703    0.8792329997  -11.3376093147
H        -5.9688550454    1.4295146099  -12.5454367178
H        -6.5107620065   -0.2397893157  -12.5476822007
C         1.2090036769   -2.3399592981   -5.7279769493
H         0.9955475270   -2.0956379745   -4.6872947138
H         2.1873978636   -1.9234882464   -5.9754371642
H         1.2979492375   -3.4257385078   -5.7975855580
C        -5.9617724540    1.4197961602   -2.4293477824
C        -6.2015677355    1.4960936016   -1.0542018759
H        -5.3952918366    1.1963388353   -0.3962823338
C        -7.4049071408    1.9201036492   -0.5022017604
C        -8.4255948156    2.3742725316   -1.3784921215
C        -8.2009170272    2.2845640882   -2.7480039785
H        -8.9786871999    2.5906834149   -3.4353262158
C        -7.0213870415    1.8030062779   -3.3108899123
C        -9.6638611236    2.9161286058   -0.8364077632
C       -10.6647981332    3.4331922038   -1.6757658192
H       -10.5211730671    3.4252199982   -2.7477114940
C       -11.8401651134    3.9684111973   -1.1964764021
C       -12.0265890973    4.0036443646    0.1893396214
H       -12.9343475681    4.4278416927    0.6023946277
C       -11.0640609937    3.5053556292    1.0342648663
H       -11.2501695512    3.5605920669    2.0975958356
C        -9.8710891532    2.9449332212    0.5530444297
C        -7.6579998934    1.8832064150    0.9325796366
C        -8.8651591214    2.3846767732    1.4499596362
C        -9.0750895009    2.3035702752    2.8346390145
H        -9.9963599979    2.6690089427    3.2658051949
C        -8.1458697020    1.7497338638    3.6820718962
H        -8.3533141225    1.7007478970    4.7446803114
C        -6.9481865839    1.2339828105    3.1780780288
C        -6.7331620533    1.3117771010    1.8198602529
H        -5.8171029609    0.8886198227    1.4303413391
C       -12.8915084008    4.4991550919   -2.1264104226
H       -12.5644063056    4.4629969970   -3.1654117265
H       -13.1418124103    5.5359023195   -1.8958435269
H       -13.8149267264    3.9215127518   -2.0498530781
C        -5.9412068649    0.6005491440    4.0920819317
H        -5.0858462060    0.2179559043    3.5346078078
H        -5.5667581870    1.3135659425    4.8290638283
H        -6.3756679277   -0.2349153375    4.6436665673
B        -6.8650149275    1.6852632307   -4.8329089455
C        -8.0215317569    2.1396019762   -5.8178987701
C        -8.8985963698    1.1988013294   -6.3816064707
C        -9.8761908031    1.6051523492   -7.2824840321
H       -10.5409272801    0.8751583907   -7.7327130228
C       -10.0198844870    2.9402454089   -7.6127761422
C        -9.1806710954    3.8829163477   -7.0472915334
H        -9.2970932226    4.9275237037   -7.3156239678
C        -8.1776865281    3.4912304552   -6.1662600790
N       -11.0137768677    3.3288431823   -8.5546497738
C       -12.3255554199    3.4909443736   -8.1316778723
C       -10.6585051900    3.4471284205   -9.8918478795
C       -11.6204981501    3.7341468244  -10.8668563633
C       -11.2065502283    3.8490432399  -12.1906279302
H       -11.9449849359    4.0663456306  -12.9528465763
C        -9.8880759402    3.6906863402  -12.5758637279
H        -9.6044181552    3.7897909100  -13.6150461885
C        -8.9451833291    3.3992425738  -11.6031592366
H        -7.9043122700    3.2674987770  -11.8695266017
C        -9.3226221785    3.2732275880  -10.2805840440
H        -8.5695651978    3.0405723966   -9.5413578393
C       -13.3467235908    3.7693334627   -9.0479360468
C       -14.6440085467    3.9160217985   -8.5664884066
H       -15.4416435648    4.1248782219   -9.2694363662
C       -14.9592733161    3.7985468713   -7.2249541975
H       -15.9810187759    3.9160050967   -6.8897118467
C       -13.9397912468    3.5255708407   -6.3264296772
H       -14.1509772419    3.4258117325   -5.2691798342
C       -12.6409931427    3.3745982607   -6.7708453499
H       -11.8620589530    3.1580046344   -6.0536705169
C        -8.8522696704   -0.2576441672   -5.9975264791
H        -9.1232687486   -0.8711941550   -6.8613375378
H        -7.8375540402   -0.5490896424   -5.7207929605
C        -7.2203645790    4.5402593975   -5.6665458132
H        -6.8543216572    4.2785262800   -4.6718964655
H        -7.7443644319    5.4940951916   -5.5615354430
C       -13.0961500446    3.8983731814  -10.5420448304
C        -9.8019083371   -0.5677139430   -4.8418950983
H        -9.5364084499    0.0058950256   -3.9535578398
H        -9.7654115643   -1.6255786814   -4.5780381962
H       -10.8329563293   -0.3228564544   -5.1024209311
C        -6.0372168899    4.7142740999   -6.6173109615
H        -5.4777834961    3.7840767777   -6.7175656307
H        -6.3749614348    5.0088670037   -7.6122795356
H        -5.3493799481    5.4800800899   -6.2557318884
C       -13.8919674970    2.8052290556  -11.2777662013
H       -13.5762712881    1.8127708710  -10.9560613474
H       -13.7485448673    2.8700516652  -12.3572659708
H       -14.9618097789    2.8971973871  -11.0853679457
C       -13.5705808895    5.2823212001  -11.0169453156
H       -14.6328225851    5.4269210327  -10.8180629929
H       -13.4264198905    5.4050822722  -12.0908313800
H       -13.0218603362    6.0761942881  -10.5106886590
