174
 Final energy is   -3629.20315156125     
C        -6.1208435432    3.9805615869    2.3659509653
C        -6.6295376506    2.6615253053    2.5785538375
B        -5.7405810777    1.4287705024    2.3733422069
C        -4.2594294946    1.6480162747    2.0384191898
C        -3.7414280935    2.9636550170    1.8260922747
B        -4.6678565874    4.1801868049    1.9237996496
C        -2.3982958020    3.0790054520    1.4519428423
C        -1.5538012668    1.9918213176    1.2503805903
C        -2.0842321129    0.6850512668    1.4275870728
C        -3.4089165154    0.5644111716    1.8308670048
C        -7.0181037611    5.0483017592    2.4851678845
C        -8.3622026578    4.8990550645    2.8073825345
C        -8.8633888467    3.5848346554    3.0155176098
C        -7.9808102226    2.5193780636    2.8880802076
H        -6.6343914599    6.0404217292    2.2840071588
C        -6.3866790491   -0.0189582886    2.3471556025
C        -4.2047662520    5.6044322778    1.4052616662
C        -6.7187378060   -0.5856252951    1.1048322753
C        -7.3175339102   -1.8380641994    1.0429464052
C        -7.6248105861   -2.5297393228    2.2000857087
C        -7.3120308729   -1.9831861048    3.4324294506
C        -6.6873739612   -0.7416807103    3.5130871783
C        -6.2965477703   -0.2192849912    4.8693852400
C        -6.5189591008    0.1572122363   -0.1920443640
H        -7.5714903296   -2.2739773643    0.0820436535
N        -8.2884867433   -3.7870579222    2.1123732882
H        -7.5570435729   -2.5322391784    4.3355498879
C        -4.8836925838   -0.6543167177    5.2529149910
H        -7.0039831978   -0.5811103634    5.6201790172
H        -6.3578747489    0.8712096622    4.8871645024
C        -7.7949145354    0.8699530507   -0.6377608459
H        -6.2093727497   -0.5465754966   -0.9699682941
H        -5.7114991393    0.8842681935   -0.0991289760
C        -3.8706455895    6.6520849686    2.2790070267
C        -3.5366206705    7.9090388461    1.7818880331
C        -3.5359598058    8.1078669472    0.4156144811
C        -3.8513084407    7.0967457711   -0.4698999107
C        -4.1881903779    5.8403254334    0.0181316922
C        -4.5848954234    4.7807663196   -0.9801548590
C        -3.8258590075    6.4233605620    3.7659446579
H        -3.2827335408    8.7211926980    2.4535173483
N        -3.2119224001    9.3999259480   -0.1224698286
H        -3.8399564387    7.2879104354   -1.5374745924
H        -4.0782969529    4.9759837532   -1.9291129255
C        -6.0935270496    4.7325359401   -1.2191350771
H        -4.2437370724    3.8004175375   -0.6463227116
H        -4.6537959086    5.7780039409    4.0658799120
H        -3.9669246739    7.3726060805    4.2891541427
C        -2.5088249566    5.7894716043    4.2081776920
C        -0.1634456904    2.1509058684    0.8380269309
C       -10.2753392587    3.3750497021    3.3090619185
C       -10.7926822596    2.0894017923    3.5479623451
C         1.7176753854    3.6108240263    0.2879783282
C         2.4904800678    2.4761745148    0.0207586820
C       -12.9946862427    2.9535767401    3.8099250337
C       -12.1278068301    1.8557086863    3.7983511323
C       -12.6472171871    0.4718103911    4.0539615315
H        -3.8342347875   -0.4202825468    1.9742967833
C         0.4132100456    3.4228379488    0.6902865116
H        -2.0182337850    4.0797698837    1.2904598597
C        -1.2619926378   -0.4849201241    1.1472788652
C         0.2830395175   -2.7380137466    0.5494726801
C        -1.0363399192   -2.9137419262    0.9793590637
C        -1.7761913124   -1.7874491942    1.2681605669
C        -1.6224758916   -4.2874283042    1.1217635702
H        -2.7992459312   -1.9345626262    1.5873618641
H        -8.3522074450    1.5098749866    3.0073289197
H       -10.1304389348    1.2341527736    3.5429784218
C        -9.2732845065    6.0359446180    2.8991462273
C        -8.8154840530    7.3554015086    2.7474654724
C        -9.6530823720    8.4488586656    2.8042707895
C       -11.0155650894    8.2205459741    3.0203771699
C        -9.1315666367    9.8453366751    2.6411664036
H        -7.7610971239    7.5370330690    2.5867311719
C       -10.6434395463    5.8226195074    3.1368066500
C         0.6262622842    1.0178502877    0.5710017015
C         0.0647927768   -0.3231456769    0.7144569364
C       -11.1554834133    4.4701729665    3.3428065506
C         1.9535986093    1.2186849285    0.1623189535
C         0.8118129058   -1.4755545593    0.4228371991
H         0.8928478693   -3.6007211949    0.3078669744
H         1.8336223707   -1.3922163631    0.0808663067
H        -0.1795215288    4.3031674362    0.8992558397
C         2.3012670824    4.9851901270    0.1461939156
H         3.5204413644    2.5847837750   -0.2982129442
H         2.5903243596    0.3721300069   -0.0523736043
C       -11.4896950857    6.9412007492    3.1843739915
H       -12.5488067964    6.8153524699    3.3589980874
H       -11.7042851024    9.0559737316    3.0677129205
C       -12.5150795261    4.2223953272    3.5902675216
H       -14.0517672016    2.8053250129    3.9978805182
H       -13.2244011290    5.0374855436    3.6149683446
H         3.1035113433    5.1513091637    0.8674697319
H         1.5477984769    5.7563749984    0.3079741705
H         2.7260026696    5.1363417974   -0.8475691554
H        -1.4735105585   -4.8804942153    0.2182088628
H        -2.6938413180   -4.2461384528    1.3173072527
H        -1.1564014412   -4.8332958879    1.9446181438
H       -13.1036310834    0.3966386786    5.0426129619
H       -13.4144623580    0.1961651698    3.3278010490
H       -11.8552025295   -0.2742164281    3.9984657257
H        -9.4072914184   10.4738734031    3.4893813472
H        -8.0449877232    9.8611390150    2.5577805505
H        -9.5418889525   10.3193272694    1.7468222158
H        -6.3388559510    3.9713895866   -1.9609429889
H        -6.4699728806    5.6896385939   -1.5840968812
H        -6.6303856557    4.4865551967   -0.3038084415
H        -7.6385054605    1.4022354779   -1.5774165284
H        -8.1182798347    1.5975514521    0.1074670099
H        -8.6111326496    0.1610051171   -0.7868464677
H        -2.3673700688    4.8139529342    3.7429301447
H        -2.4920766754    5.6450513936    5.2887777949
H        -1.6577724913    6.4177003079    3.9400115595
H        -4.1519171110   -0.2731346335    4.5400187437
H        -4.7993400925   -1.7422141830    5.2678866041
H        -4.6110319567   -0.2822703340    6.2413317757
C        -4.2352803454   10.2924438020   -0.3318868675
C        -3.9649542302   11.5591290609   -0.8825725244
C        -2.5730751584   11.9896065714   -1.2702697915
C        -1.5552814101   10.9054787703   -1.0142048632
C        -2.1926527189   13.2353156624   -0.4461071187
C        -2.5655120882   12.3305670585   -2.7744047914
C        -1.9048021195    9.6608829364   -0.4571721266
H        -2.8444502054   11.4645857991   -3.3743503746
H        -1.5780946343   12.6632710712   -3.0912012357
H        -3.2651791246   13.1365933055   -2.9918276772
C        -5.0406126570   12.4135709729   -1.0797164714
C        -6.3372632367   12.0413786474   -0.7649171274
C        -6.5931662792   10.7795430754   -0.2309548618
C        -5.5556107727    9.9098873435   -0.0094754577
H        -5.7590279658    8.9311408284    0.3994493760
H        -7.1509866019   12.7315949537   -0.9411828138
H        -7.6038626880   10.4786007562    0.0069422571
H        -4.8728251656   13.3960360547   -1.4995758370
C        -0.2220157754   11.1099042396   -1.3373667061
C        -0.9322745299    8.6612608893   -0.2470214119
C         0.3753176143    8.9000546016   -0.5860910904
C         0.7363238313   10.1305721453   -1.1323562910
H        -1.2124066283    7.7062752029    0.1721400414
H         1.1179570889    8.1302184211   -0.4288971373
H         0.0842679353   12.0542582134   -1.7663325160
H         1.7658045419   10.3244018299   -1.4006065217
C        -9.6688288997   -3.8037557976    1.9545639303
C        -7.5393317824   -4.9559550511    2.0922173822
C        -8.1604382709   -6.2040718796    1.9578235226
C        -9.6670516808   -6.3632461284    1.8278786253
C       -10.3611417596   -5.0124116980    1.8156722288
C        -9.9859818070   -7.1056797717    0.5179926510
C       -10.3885813364   -2.5999765090    1.9373585535
C       -11.7611920146   -2.5925528723    1.7783131200
C       -12.4564748989   -3.7839654881    1.6421453905
C       -11.7448506295   -4.9698512532    1.6653070162
H       -12.2896568092   -5.9006001883    1.5611280476
H       -12.2847007744   -1.6452117992    1.7619570685
H       -13.5313358608   -3.7919510511    1.5194002681
H        -9.8715631777   -1.6573631985    2.0445829546
C        -6.1438040842   -4.8957192237    2.2072637081
C        -5.3792911147   -6.0467611150    2.1986435357
C        -5.9840116551   -7.2878459128    2.0721386946
C        -7.3612188046   -7.3432570307    1.9527611067
H        -7.8337262924   -8.3131167739    1.8540705012
H        -5.6506093455   -3.9392415755    2.3076565098
H        -4.3036810882   -5.9670231055    2.2929625617
H        -5.3965756553   -8.1962223774    2.0659495552
H        -2.1976594183   13.0160518964    0.6213012216
H        -2.8932423331   14.0489607645   -0.6313934946
H        -1.1993487626   13.5892709268   -0.7193926244
H        -9.6346368746   -6.5414048314   -0.3460118155
H       -11.0587935383   -7.2636777256    0.4027714509
H        -9.5140024188   -8.0885738237    0.4934053053
C       -10.1909256799   -7.1858885799    3.0185436064
H        -9.9807316366   -6.6832856421    3.9628446236
H        -9.7270998839   -8.1728285185    3.0512272906
H       -11.2694667721   -7.3354979544    2.9500926595
