174
 Final energy is   -3629.15908602446     
C        -6.0111463555    3.9508853488    2.2563793146
C        -6.5539932176    2.6290638331    2.4893940122
B        -5.7000302344    1.3761534714    2.3003399507
C        -4.2242627305    1.5710763260    1.9560713234
C        -3.6698454223    2.8916225778    1.7312115133
B        -4.5545951475    4.1354473871    1.8199850301
C        -2.3240565218    2.9812908604    1.3644018831
C        -1.5087841574    1.8800656846    1.1634294138
C        -2.0856371635    0.5606063959    1.3287783694
C        -3.4006228498    0.4682922148    1.7505857004
C        -6.8803719304    5.0408749078    2.3582157312
C        -8.2201985005    4.9275692778    2.6849173421
C        -8.7586620472    3.6032512996    2.9190105143
C        -7.9050633987    2.5191251651    2.8057116654
H        -6.4678099737    6.0145764893    2.1355400911
C        -6.3664756413   -0.0565220204    2.3177013738
C        -4.0736513074    5.5601838928    1.3462212419
C        -6.7081425140   -0.6581359494    1.0951285530
C        -7.3277894626   -1.9009462666    1.0808798946
C        -7.6428483011   -2.5470375642    2.2616852415
C        -7.3174355099   -1.9633322505    3.4732311092
C        -6.6739341614   -0.7304416233    3.5101494456
C        -6.2670010947   -0.1673994655    4.8453366879
C        -6.4997675670    0.0354480945   -0.2272600106
H        -7.5933134657   -2.3678613023    0.1383430807
N        -8.3223535156   -3.7954441661    2.2190902689
H        -7.5667214388   -2.4801444974    4.3934334583
C        -4.8512791519   -0.5936486290    5.2265563542
H        -6.9670275590   -0.5042962525    5.6142260982
H        -6.3269398995    0.9235298857    4.8345868345
C        -7.7439071556    0.8063188727   -0.6646254267
H        -6.2514689338   -0.7081282324   -0.9894847218
H        -5.6483087366    0.7161980854   -0.1823831661
C        -3.8068926119    6.5925504185    2.2589589719
C        -3.5391564033    7.8786643843    1.8012514265
C        -3.5174916954    8.1447766760    0.4433465532
C        -3.7371016714    7.1242790761   -0.4644201186
C        -4.0242803788    5.8361516262   -0.0307171163
C        -4.3515225736    4.7921890016   -1.0709855631
C        -3.7719344915    6.3178980849    3.7393931533
H        -3.3531245770    8.6838181685    2.5028696066
N        -3.2971047406    9.4649016932   -0.0278701457
H        -3.7107055994    7.3489416535   -1.5252339233
H        -3.8312043923    5.0410193561   -1.9994814920
C        -5.8494257582    4.6892988825   -1.3537060983
H        -3.9739850049    3.8134621337   -0.7700876513
H        -4.5937975446    5.6560043847    4.0234347517
H        -3.9291816893    7.2497065428    4.2883245969
C        -2.4501069557    5.6906878202    4.1762920340
C        -0.1153689708    1.9998614875    0.7785104548
C       -10.1665228701    3.4368481459    3.2173065258
C       -10.7101025945    2.1659959802    3.4769481937
C         1.8176651901    3.4137393549    0.3011890971
C         2.5592550228    2.2602582992    0.0428975505
C       -12.8847522321    3.0844034168    3.7209546149
C       -12.0499439098    1.9655952325    3.7304965083
C       -12.6021427581    0.6002861641    4.0121115026
H        -3.8466649882   -0.5036868827    1.9080015168
C         0.4975973229    3.2575885738    0.6663400478
H        -1.9306383334    3.9759151055    1.2060503973
C        -1.3036863784   -0.6166432893    1.0114219518
C         0.1573443200   -2.8922924513    0.3377854843
C        -1.1692659815   -3.0425826115    0.7436784999
C        -1.8705382802   -1.9014222902    1.0693529965
C        -1.8055679536   -4.3982474231    0.8241726182
H        -2.9050782503   -2.0209315137    1.3597493847
H        -8.2942068927    1.5192820611    2.9369693920
H       -10.0666000256    1.2973058048    3.4860040147
C        -9.1011613393    6.0784330755    2.7640498324
C        -8.6086821108    7.3826309736    2.5936747159
C        -9.4195061382    8.4976029619    2.6396589726
C       -10.7831448694    8.2981243864    2.8580281603
C        -8.8623558882    9.8794206417    2.4784249426
H        -7.5517336467    7.5389179066    2.4270130091
C       -10.4753220400    5.8969051264    3.0069940834
C         0.6441064402    0.8461632624    0.5092632288
C         0.0332993047   -0.4821253950    0.5979496801
C       -11.0185367420    4.5558303145    3.2325200630
C         1.9823786230    1.0128931076    0.1477786896
C         0.7360725542   -1.6430617182    0.2667731754
H         0.7396042540   -3.7640212951    0.0641058129
H         1.7614149752   -1.5853600715   -0.0679545422
H        -0.0754684711    4.1504117485    0.8732825258
C         2.4431458233    4.7715100822    0.1920872846
H         3.6009633133    2.3413148086   -0.2432675973
H         2.6023421271    0.1526402981   -0.0584832921
C       -11.2909727515    7.0301108417    3.0392570353
H       -12.3528404185    6.9340136675    3.2130103320
H       -11.4535586073    9.1485162236    2.8926061684
C       -12.3769019219    4.3424101161    3.4809098034
H       -13.9453957812    2.9659444143    3.9083417144
H       -13.0690378960    5.1715839985    3.4912332843
H         3.2229312039    4.9089986398    0.9429174732
H         1.7083465650    5.5634830556    0.3316847680
H         2.9045193806    4.9182840481   -0.7852688513
H        -1.6165406873   -4.9834870494   -0.0763411677
H        -2.8859384539   -4.3291328409    0.9488090679
H        -1.4116201603   -4.9679845084    1.6681026756
H       -13.0164057905    0.5419180880    5.0200139405
H       -13.4078014013    0.3480706762    3.3205110373
H       -11.8404353201   -0.1737558245    3.9267975428
H        -8.9505145023   10.4479469208    3.4059472365
H        -7.8096022620    9.8647994324    2.2003088237
H        -9.3968966642   10.4374185895    1.7084248184
H        -6.0462863255    3.9555795253   -2.1365427017
H        -6.2557865745    5.6467106227   -1.6819824719
H        -6.4036808577    4.3813275967   -0.4673215186
H        -7.5875125386    1.2879827069   -1.6306263999
H        -8.0003054094    1.5833893879    0.0559639707
H        -8.6055289427    0.1435336468   -0.7564999196
H        -2.2943230665    4.7232608504    3.6980695849
H        -2.4300278198    5.5303732290    5.2547166985
H        -1.6069384300    6.3316933076    3.9160184134
H        -4.1243369471   -0.2290410020    4.5003459969
H        -4.7670411094   -1.6805607513    5.2648092285
H        -4.5698120041   -0.2000102458    6.2036371736
C        -4.3971054790   10.2362147972   -0.3803511813
C        -4.2280932704   11.5336217570   -0.8731493223
C        -2.8594323433   12.1709018212   -1.0399925585
C        -1.7455074012   11.1770788945   -0.7510928832
C        -2.7408889421   13.3488337413   -0.0594214359
C        -2.7195001002   12.6777706382   -2.4854576827
C        -1.9969111868    9.8899443087   -0.2666193123
H        -2.8305308695   11.8574974336   -3.1943085966
H        -1.7481313290   13.1409639031   -2.6567602096
H        -3.4741287774   13.4282953621   -2.7206331442
C        -5.3672143574   12.2609589159   -1.2053822145
C        -6.6452268230   11.7461775619   -1.0839658443
C        -6.7980575744   10.4555891058   -0.6053359753
C        -5.6909963277    9.7112925453   -0.2500008459
H        -5.8363385765    8.7045107333    0.1155274709
H        -7.5037854011   12.3420845630   -1.3622442725
H        -7.7822924514   10.0149742328   -0.5091904577
H        -5.2539664914   13.2716919851   -1.5773954844
C        -0.4216687777   11.5508021387   -0.9556185421
C        -0.9277286277    9.0184921271   -0.0269263569
C         0.3738455305    9.4198627668   -0.2488333823
C         0.6395961690   10.6974785238   -0.7132270371
H        -1.1180319357    8.0170631904    0.3320646295
H         1.1818113676    8.7255055963   -0.0564328489
H        -0.2096200604   12.5492268946   -1.3174748686
H         1.6551898196   11.0257898437   -0.8865960289
C        -9.7030127797   -3.7985634127    2.0585322540
C        -7.5857017642   -4.9733503328    2.2275818487
C        -8.2222455066   -6.2157028196    2.1293595240
C        -9.7315195712   -6.3595185174    2.0155756724
C       -10.4096776828   -5.0017613661    1.9612632590
C       -10.0696411383   -7.1409482175    0.7337411884
C       -10.4058232790   -2.5876577370    1.9944060414
C       -11.7770887521   -2.5682686913    1.8322810241
C       -12.4875398518   -3.7536604500    1.7423736243
C       -11.7918640019   -4.9459295453    1.8099690957
H       -12.3486906196   -5.8723959753    1.7394369032
H       -12.2882710312   -1.6160019115    1.7729221810
H       -13.5619137940   -3.7523002104    1.6181707833
H        -9.8742174308   -1.6497527327    2.0623556946
C        -6.1902704305   -4.9261137526    2.3366513953
C        -5.4398043020   -6.0852400566    2.3540356212
C        -6.0589789344   -7.3207808251    2.2604996383
C        -7.4362147680   -7.3627783621    2.1498893368
H        -7.9206389296   -8.3290239167    2.0798145724
H        -5.6881579519   -3.9724423333    2.4152182068
H        -4.3632222082   -6.0172283682    2.4457912112
H        -5.4826300901   -8.2357226167    2.2754258056
H        -2.8402293235   13.0052739149    0.9702199696
H        -3.5188330428   14.0915921086   -0.2415154052
H        -1.7759353854   13.8489228947   -0.1551917687
H        -9.7200279456   -6.6083969320   -0.1502399388
H       -11.1446334745   -7.2914946789    0.6307657040
H        -9.6081940321   -8.1287984759    0.7352839977
C       -10.2555501184   -7.1326690607    3.2386904365
H       -10.0297434171   -6.5995730502    4.1619227802
H        -9.8045352826   -8.1238479457    3.3048330546
H       -11.3366709005   -7.2695625013    3.1866032628
