78
 Final energy is   -1855.53083693978     
C         0.1016158411   -4.6909845973    1.1269694215
C         0.0700386144   -4.5972235685    2.6509635172
C         1.5079072724   -4.1530396453    0.8504994598
C         2.1352013363   -4.0294408926   -0.3717710427
H         1.6365339384   -4.3233423423   -1.2871212062
C         3.4286240492   -3.5255468626   -0.4088736271
H         3.9380293400   -3.4233733831   -1.3578900220
C         4.0725088574   -3.1499631960    0.7648460984
H         5.0801911059   -2.7593874108    0.7193485806
C         3.4390777195   -3.2746245105    1.9926771212
H         3.9505065559   -2.9866878672    2.9020823621
C         2.1489587882   -3.7811612177    2.0305510925
C        -0.9518511409   -4.9862814258    3.4923769778
H        -1.8659077242   -5.4114662948    3.0959778896
C        -0.7820732093   -4.8228905161    4.8609058346
H        -1.5702726916   -5.1195928726    5.5398061864
C         0.3950877390   -4.2817097008    5.3662008809
H         0.5117120610   -4.1619857724    6.4348550326
C         1.4229310859   -3.8982378033    4.5173057089
H         2.3382857417   -3.4840590003    4.9200194819
C         1.2546830093   -4.0608837209    3.1509022608
C        -1.4483823657   -3.7555675861   -0.7659857244
C        -2.1848856068   -2.6836360388   -1.2601159799
H        -2.6368282875   -2.7664140710   -2.2400253214
C        -2.3750268116   -1.5190362204   -0.5383925219
C        -3.1465681302   -0.4569613691   -1.0937725547
N        -3.7739623522    0.3841686432   -1.5664478695
C        -0.8660731005   -3.6692119988    0.5059163264
C        -1.0718167544   -2.4939859372    1.2288298402
H        -0.6449641939   -2.3850345791    2.2148695606
C        -1.8103413911   -1.4308277425    0.7349500694
C        -1.9859881117   -0.2639555241    1.5352572905
N        -2.1227266234    0.6714776960    2.1913796901
H         5.5778169116   -6.8550543384   -0.4676464840
H         7.2875053630   -8.4359901590    0.4014652953
C         5.2910659200   -7.6781272486    0.1737331555
C         6.2434169228   -8.5584688534    0.6559450996
C         3.9594845190   -7.8271776732    0.5213010532
H         3.2382104028   -7.1165293484    0.1437718820
C         5.8412546004   -9.6187061565    1.4538693798
H         6.5880186596  -10.3202435612    1.7993452797
C         3.5659254818   -8.8711950576    1.3566237571
C         4.5097207120   -9.8116252035    1.7918806446
N         2.2430551157   -9.0222801052    1.7898982645
C         2.9112193038  -10.6081086931    3.4692459898
C         2.0004021919   -9.6467540467    3.0175889688
H         3.4047492820  -11.9120611490    5.0934285877
C         2.7059520574  -11.1773510982    4.7174822062
C         0.8836904719   -9.3218289021    3.7854517296
C         1.6037273483  -10.8493213450    5.4924687404
C         0.6865072776   -9.9306062429    5.0124444843
H         0.1720321022   -8.5863188838    3.4357790847
H         1.4599201380  -11.3182174920    6.4564735891
H        -0.1843375941   -9.6688206251    5.5991397476
C         3.9960329910  -11.0480721779    2.5076037022
C         5.1077691343  -11.8244692339    3.2028094821
C         3.3539689748  -11.9812928814    1.4575309117
C         1.1911734521   -8.3008781555    1.1768143926
C         0.2601298091   -8.9703491278    0.3962654803
C        -0.7567385716   -8.2471052435   -0.1864388062
C        -0.8807086582   -6.8636372542   -0.0298960394
C         0.0460100276   -6.1880315298    0.7660116000
C         1.0577786514   -6.9411746081    1.3662416467
H         1.7812722516   -6.4558511791    2.0077579731
H         0.3408051544  -10.0390989420    0.2465196058
H        -1.4775539855   -8.7617273497   -0.8104241554
C        -1.9622566171   -6.1870449708   -0.8180378772
C        -1.4161663355   -4.9973031893   -1.6021258592
H        -2.7882835323   -5.8611290220   -0.1792025551
H        -2.3898424473   -6.9132153271   -1.5108466871
H        -2.0168786297   -4.8338797669   -2.4981185837
H        -0.4070067145   -5.2264737873   -1.9543907519
H         2.5466799979  -11.4912641030    0.9140451408
H         2.9399999728  -12.8684258084    1.9404840151
H         4.0982968526  -12.3027982933    0.7268299777
H         5.6126578409  -11.2285417443    3.9640108239
H         5.8526674699  -12.1665385591    2.4846351653
H         4.7139311626  -12.7230842339    3.6776361279
